@<TRIPOS>MOLECULE
tmp/2bt4C01.pdb
 157 150 0 0 0
SMALL
GASTEIGER

@<TRIPOS>ATOM
      1  N         16.8260  -24.4010   -8.7810 N.3    14  PRO14      -0.2102
      2  CA        18.1570  -24.0740   -8.4060 C.3    14  PRO14       0.1504
      3  C         18.5640  -24.3780   -6.9760 C.2    14  PRO14       0.2576
      4  O         17.7750  -24.2640   -5.9830 O.2    14  PRO14      -0.2718
      5  CB        18.2850  -22.6050   -8.7310 C.3    14  PRO14       0.0282
      6  CG        16.9220  -22.1390   -8.6510 C.3    14  PRO14       0.0208
      7  CD        16.0400  -23.2340   -9.2180 C.3    14  PRO14       0.0893
      8  N         19.8350  -24.7480   -6.8530 N.am   15  ASN15      -0.1961
      9  CA        20.5190  -24.9760   -5.5740 C.3    15  ASN15       0.1819
     10  C         20.1500  -26.3030   -4.8720 C.2    15  ASN15       0.2621
     11  O         20.8040  -26.6940   -3.9140 O.2    15  ASN15      -0.2715
     12  CB        20.3520  -23.8250   -4.6320 C.3    15  ASN15       0.1195
     13  CG        20.8550  -22.5220   -5.2150 C.2    15  ASN15       0.2630
     14  OD1       22.0330  -22.3560   -5.4200 O.2    15  ASN15      -0.2716
     15  ND2       19.9520  -21.5620   -5.4390 N.am   15  ASN15      -0.0877
     16  N         19.1410  -27.0080   -5.3860 N.am   16  LEU16      -0.1977
     17  CA        18.6780  -28.2340   -4.7400 C.3    16  LEU16       0.1596
     18  C         19.6750  -29.3410   -4.9230 C.2    16  LEU16       0.2287
     19  O         19.6470  -30.3250   -4.2000 O.2    16  LEU16      -0.2864
     20  CB        17.3460  -28.6720   -5.2900 C.3    16  LEU16       0.0297
     21  CG        16.2210  -27.8300   -4.6920 C.3    16  LEU16       0.0022
     22  CD1       14.9770  -28.0800   -5.4280 C.3    16  LEU16       0.0001
     23  CD2       15.9930  -28.0920   -3.1660 C.3    16  LEU16       0.0001
     24  N         22.4150  -29.2170   -3.8120 N.3    18  LEU18      -0.1231
     25  CA        23.1730  -29.2160   -2.5510 C.3    18  LEU18       0.1693
     26  C         22.3820  -29.6210   -1.3420 C.2    18  LEU18       0.2592
     27  O         22.8840  -29.5430   -0.2150 O.2    18  LEU18      -0.2718
     28  CB        23.8310  -27.8640   -2.2600 C.3    18  LEU18       0.0284
     29  CG        24.8340  -27.4520   -3.3370 C.3    18  LEU18       0.0019
     30  CD1       25.3400  -26.0620   -3.0390 C.3    18  LEU18       0.0001
     31  CD2       26.0040  -28.4070   -3.5020 C.3    18  LEU18       0.0001
     32  N         21.1430  -30.0920   -1.5600 N.am   19  LEU19      -0.1966
     33  CA        20.2850  -30.5150   -0.4980 C.3    19  LEU19       0.1728
     34  C         21.0330  -31.5150    0.3680 C.2    19  LEU19       0.2616
     35  O         21.7570  -32.4410   -0.1560 O.2    19  LEU19      -0.2715
     36  CB        19.0220  -31.1820   -1.1260 C.3    19  LEU19       0.0311
     37  CG        17.9580  -31.5590   -0.1050 C.3    19  LEU19       0.0022
     38  CD1       17.3650  -30.3290    0.6380 C.3    19  LEU19       0.0001
     39  CD2       16.8600  -32.3770   -0.8330 C.3    19  LEU19       0.0001
     40  N         20.8680  -31.3660    1.6780 N.am   20  GLY20      -0.1955
     41  CA        21.5000  -32.2570    2.6240 C.3    20  GLY20       0.1869
     42  C         22.7990  -31.7510    3.1690 C.2    20  GLY20       0.2309
     43  O         23.2910  -32.2850    4.1440 O.2    20  GLY20      -0.2863
     44  N         23.5110  -28.5930    4.2770 N.3    22  ARG22      -0.1231
     45  CA        23.3680  -27.5560    5.3180 C.3    22  ARG22       0.1694
     46  C         21.9160  -27.3940    5.7460 C.2    22  ARG22       0.2591
     47  O         21.0130  -27.9860    5.1510 O.2    22  ARG22      -0.2718
     48  CB        23.8930  -26.2340    4.7980 C.3    22  ARG22       0.0321
     49  CG        23.0710  -25.6460    3.6750 C.3    22  ARG22       0.0489
     50  CD        23.6120  -24.3590    3.1420 C.3    22  ARG22       0.2205
     51  NE        23.9510  -23.3970    4.1800 N.pl3  22  ARG22      -0.0865
     52  CZ        23.1140  -22.4400    4.5790 C.cat  22  ARG22       0.5346
     53  NH1       21.9010  -22.3590    4.0370 N.pl3  22  ARG22       0.1354
     54  NH2       23.4650  -21.5860    5.5250 N.pl3  22  ARG22       0.1354
     55  N         21.7070  -26.6060    6.7910 N.am   23  GLN23      -0.1979
     56  CA        20.3620  -26.3230    7.3420 C.3    23  GLN23       0.1601
     57  C         19.4280  -27.5320    7.4460 C.2    23  GLN23       0.2287
     58  O         18.3020  -27.4970    6.9630 O.2    23  GLN23      -0.2864
     59  CB        19.6620  -25.2440    6.5370 C.3    23  GLN23       0.0394
     60  CG        20.1050  -23.8730    6.8860 C.3    23  GLN23       0.0908
     61  CD        19.4360  -22.8660    5.9820 C.2    23  GLN23       0.2608
     62  OE1       19.2870  -23.1130    4.7720 O.2    23  GLN23      -0.2717
     63  NE2       19.0330  -21.7320    6.5500 N.am   23  GLN23      -0.0878
     64  N         15.5820  -28.3580    6.1690 N.3    27  TYR27      -0.1241
     65  CA        15.3990  -29.1280    4.9390 C.3    27  TYR27       0.1605
     66  C         15.7180  -30.6120    5.1240 C.2    27  TYR27       0.2264
     67  O         15.5680  -31.4020    4.1810 O.2    27  TYR27      -0.2867
     68  CB        16.3100  -28.5870    3.8340 C.3    27  TYR27       0.0534
     69  CG        16.0630  -27.1380    3.4250 C.ar   27  TYR27      -0.0201
     70  CD1       16.8460  -26.1120    3.9200 C.ar   27  TYR27      -0.0009
     71  CD2       15.0840  -26.8150    2.5120 C.ar   27  TYR27      -0.0009
     72  CE1       16.6370  -24.8370    3.5390 C.ar   27  TYR27       0.0417
     73  CE2       14.8660  -25.5530    2.1460 C.ar   27  TYR27       0.0417
     74  CZ        15.6490  -24.5530    2.6640 C.ar   27  TYR27       0.1957
     75  OH        15.4770  -23.2600    2.2660 O.3    27  TYR27      -0.2866
     76  N          9.5420  -28.9460   -7.6190 N.3    78  ASN78      -0.1240
     77  CA        10.0050  -27.9890   -6.5910 C.3    78  ASN78       0.1653
     78  C         10.8480  -26.8820   -7.2610 C.2    78  ASN78       0.2266
     79  O         11.9900  -27.1530   -7.5860 O.2    78  ASN78      -0.2867
     80  CB        10.9090  -28.6880   -5.5930 C.3    78  ASN78       0.1155
     81  CG        11.3930  -27.7870   -4.4760 C.2    78  ASN78       0.2627
     82  OD1       11.4210  -26.5310   -4.6220 O.2    78  ASN78      -0.2716
     83  ND2       11.8210  -28.4150   -3.3300 N.am   78  ASN78      -0.0877
     84  N         12.0250  -24.2610   -6.3650 N.3    80  ALA80      -0.1231
     85  CA        12.9930  -23.5680   -5.4750 C.3    80  ALA80       0.1694
     86  C         12.8620  -22.0550   -5.6510 C.2    80  ALA80       0.2591
     87  O         11.7750  -21.5360   -5.5740 O.2    80  ALA80      -0.2718
     88  CB        14.4800  -24.0550   -5.6430 C.3    80  ALA80       0.0304
     89  N         13.9600  -21.3190   -5.8120 N.am   81  ALA81      -0.1980
     90  CA        13.8500  -19.8770   -5.8890 C.3    81  ALA81       0.1597
     91  C         12.9340  -19.3880   -6.9900 C.2    81  ALA81       0.2287
     92  O         12.2610  -18.3440   -6.8670 O.2    81  ALA81      -0.2864
     93  CB        15.2650  -19.2340   -6.0730 C.3    81  ALA81       0.0319
     94  N          9.2960  -18.0930   -6.6540 N.3    84  HIS84      -0.1241
     95  CA         8.9950  -16.7070   -6.2620 C.3    84  HIS84       0.1621
     96  C          9.2090  -15.7340   -7.3990 C.2    84  HIS84       0.2264
     97  O          8.6920  -14.5970   -7.3010 O.2    84  HIS84      -0.2867
     98  CB         9.8190  -16.2800   -5.0630 C.3    84  HIS84       0.0745
     99  CG         9.9070  -17.3180   -4.0250 C.ar   84  HIS84       0.0817
    100  ND1        8.7930  -17.8340   -3.4090 N.ar   84  HIS84      -0.2268
    101  CD2       10.9600  -18.0350   -3.5760 C.ar   84  HIS84       0.1154
    102  CE1        9.1650  -18.8400   -2.6440 C.ar   84  HIS84       0.1986
    103  NE2       10.4750  -18.9480   -2.6840 N.ar   84  HIS84      -0.2212
    104  N          7.3480  -27.8090   -1.8190 N.3   105  HIS105     -0.1226
    105  CA         8.4070  -27.1450   -1.0700 C.3   105  HIS105      0.1752
    106  C          8.6880  -27.8910    0.0950 C.2   105  HIS105      0.2596
    107  O          7.7500  -28.2550    0.8160 O.2   105  HIS105     -0.2718
    108  CB         7.9580  -25.7660   -0.5990 C.3   105  HIS105      0.0759
    109  CG         7.6040  -24.9140   -1.7380 C.ar  105  HIS105      0.0818
    110  ND1        8.5690  -24.4470   -2.6140 N.ar  105  HIS105     -0.2268
    111  CD2        6.4080  -24.4950   -2.2070 C.ar  105  HIS105      0.1154
    112  CE1        7.9670  -23.7610   -3.5690 C.ar  105  HIS105      0.1986
    113  NE2        6.6590  -23.8000   -3.3700 N.ar  105  HIS105     -0.2212
    114  N          9.9710  -28.1510    0.3350 N.am  106  ILE106     -0.1966
    115  CA        10.4040  -28.8930    1.4960 C.3   106  ILE106      0.1727
    116  C         10.1500  -28.1590    2.8010 C.2   106  ILE106      0.2616
    117  O          9.6250  -28.6840    3.7660 O.2   106  ILE106     -0.2715
    118  CB        11.9230  -29.1650    1.3520 C.3   106  ILE106      0.0290
    119  CG1       12.1490  -30.2060    0.2930 C.3   106  ILE106      0.0022
    120  CG2       12.4600  -29.7650    2.5410 C.3   106  ILE106      0.0023
    121  CD1       13.5590  -30.4560   -0.0220 C.3   106  ILE106      0.0001
    122  N         10.5690  -26.9220    2.8200 N.am  107  SER107     -0.1950
    123  CA        10.2630  -26.0420    3.9410 C.3   107  SER107      0.1924
    124  C          8.8910  -25.4080    3.8420 C.2   107  SER107      0.2314
    125  O          8.3430  -25.2940    2.7910 O.2   107  SER107     -0.2863
    126  CB        11.3130  -24.9470    3.9580 C.3   107  SER107      0.2116
    127  OG        11.0580  -23.9920    2.9140 O.3   107  SER107     -0.2180
    128  N          7.2410  -22.3900    3.3820 N.3   109  ILE109     -0.1245
    129  CA         7.6530  -21.0880    2.9620 C.3   109  ILE109      0.1561
    130  C          6.8780  -19.9970    3.6730 C.2   109  ILE109      0.2260
    131  O          7.3390  -18.8510    3.7490 O.2   109  ILE109     -0.2867
    132  CB         7.4770  -20.9330    1.4480 C.3   109  ILE109      0.0252
    133  CG1        6.0500  -21.2480    1.0360 C.3   109  ILE109      0.0019
    134  CG2        8.5170  -21.7330    0.6700 C.3   109  ILE109      0.0019
    135  CD1        5.7830  -20.8340   -0.4340 C.3   109  ILE109      0.0001
    136  N          8.7310  -18.3310    6.4970 N.3   112  ARG112     -0.1245
    137  CA        10.0250  -17.7740    6.1620 C.3   112  ARG112      0.1563
    138  C          9.9370  -16.3040    5.8140 C.2   112  ARG112      0.2260
    139  O          8.9590  -15.6190    6.1790 O.2   112  ARG112     -0.2867
    140  CB        10.6520  -18.6710    5.0770 C.3   112  ARG112      0.0307
    141  CG        10.6440  -20.1330    5.5790 C.3   112  ARG112      0.0489
    142  CD        11.4900  -21.0410    4.7590 C.3   112  ARG112      0.2205
    143  NE        12.8980  -20.6310    4.7680 N.pl3 112  ARG112     -0.0865
    144  CZ        13.7820  -21.1010    3.9150 C.cat 112  ARG112      0.5346
    145  NH1       13.3910  -21.9990    3.0150 N.pl3 112  ARG112      0.1354
    146  NH2       15.0450  -20.7030    3.9570 N.pl3 112  ARG112      0.1354
    147  N          9.3940  -15.0320    0.2340 N.3   116  ARG116     -0.1245
    148  CA         9.2070  -16.4600   -0.0160 C.3   116  ARG116      0.1563
    149  C          7.7500  -16.8960    0.1320 C.2   116  ARG116      0.2260
    150  O          7.3920  -17.9990   -0.2810 O.2   116  ARG116     -0.2867
    151  CB        10.1060  -17.2940    0.8940 C.3   116  ARG116      0.0307
    152  CG        11.5500  -16.9510    0.7440 C.3   116  ARG116      0.0489
    153  CD        12.4550  -17.9950    1.2820 C.3   116  ARG116      0.2205
    154  NE        13.8240  -17.5570    1.4210 N.pl3 116  ARG116     -0.0865
    155  CZ        14.7960  -17.8780    0.5530 C.cat 116  ARG116      0.5346
    156  NH1       14.5090  -18.5680   -0.5410 N.pl3 116  ARG116      0.1354
    157  NH2       16.0490  -17.4660    0.7640 N.pl3 116  ARG116      0.1354
@<TRIPOS>BOND
     1     7     1    1
     2     7     6    1
     3     1     2    1
     4     5     6    1
     5     5     2    1
     6     2     3    1
     7    76    77    1
     8    79    78    2
     9    96    97    2
    10    96    95    1
    11    78    77    1
    12    91    92    2
    13    91    90    1
    14     3     8   am
    15     3     4    2
    16     8     9    1
    17    94    95    1
    18    77    80    1
    19    84    85    1
    20    95    98    1
    21    93    90    1
    22    90    89    1
    23    89    86   am
    24    86    87    2
    25    86    85    1
    26    88    85    1
    27    80    81    1
    28     9    10    1
    29     9    12    1
    30    15    13   am
    31    22    21    1
    32    14    13    2
    33    16    10   am
    34    16    17    1
    35    20    17    1
    36    20    21    1
    37    13    12    1
    38    98    99    1
    39    18    17    1
    40    18    19    2
    41    10    11    2
    42    21    23    1
    43    82    81    2
    44    81    83   am
    45    99   101   ar
    46    99   100   ar
    47    24    25    1
    48   101   103   ar
    49   112   113   ar
    50   112   110   ar
    51    31    29    1
    52   100   102   ar
    53   113   111   ar
    54    29    30    1
    55    29    28    1
    56   103   102   ar
    57   110   109   ar
    58    25    28    1
    59    25    26    1
    60   111   109   ar
    61   104   105    1
    62   109   108    1
    63    32    26   am
    64    32    33    1
    65    26    27    2
    66    36    33    1
    67    36    37    1
    68   105   108    1
    69   105   106    1
    70    39    37    1
    71   156   155    1
    72    33    34    1
    73   135   133    1
    74   150   149    2
    75    35    34    2
    76    37    38    1
    77   121   119    1
    78   148   149    1
    79   148   147    1
    80   148   151    1
    81   106   114   am
    82   106   107    2
    83   119   118    1
    84   114   115    1
    85    34    40   am
    86   155   157    1
    87   155   154    2
    88   134   132    1
    89   152   151    1
    90   152   153    1
    91   133   132    1
    92   153   154    1
    93   118   115    1
    94   118   120    1
    95   132   129    1
    96   115   116    1
    97    40    41    1
    98    73    71   ar
    99    73    74   ar
   100    75    74    1
   101    71    69   ar
   102    41    42    1
   103    74    72   ar
   104   125   124    2
   105   116   122   am
   106   116   117    2
   107   122   123    1
   108   127   126    1
   109   129   128    1
   110   129   130    1
   111   145   144    1
   112    50    49    1
   113    50    51    1
   114    42    43    2
   115    69    68    1
   116    69    70   ar
   117    72    70   ar
   118   130   131    2
   119    49    48    1
   120    68    65    1
   121   124   123    1
   122   144   146    1
   123   144   143    2
   124   123   126    1
   125    53    52    1
   126    51    52    2
   127    67    66    2
   128    44    45    1
   129    52    54    1
   130   142   143    1
   131   142   141    1
   132    62    61    2
   133    48    45    1
   134    65    66    1
   135    65    64    1
   136   140   141    1
   137   140   137    1
   138    47    46    2
   139    45    46    1
   140    46    55   am
   141   138   137    1
   142   138   139    2
   143    61    63   am
   144    61    60    1
   145   137   136    1
   146    59    60    1
   147    59    56    1
   148    55    56    1
   149    58    57    2
   150    56    57    1
