@<TRIPOS>MOLECULE
tmp/2bteA02.pdb
 144 141 0 0 0
SMALL
GASTEIGER

@<TRIPOS>ATOM
      1  N         39.5380  -21.7700   15.2400 N.3   227  SER227     -0.1217
      2  CA        39.5970  -22.1320   16.6520 C.3   227  SER227      0.1889
      3  C         40.6470  -23.2090   16.8790 C.2   227  SER227      0.2288
      4  O         40.4680  -24.3400   16.4600 O.2   227  SER227     -0.2866
      5  CB        38.2230  -22.6280   17.0750 C.3   227  SER227      0.2089
      6  OG        38.1650  -22.8390   18.4600 O.3   227  SER227     -0.2183
      7  N         36.2330  -32.5270   19.0930 N.3   246  PHE246     -0.1227
      8  CA        37.1040  -31.3670   19.0670 C.3   246  PHE246      0.1736
      9  C         36.9290  -30.5640   20.3620 C.2   246  PHE246      0.2596
     10  O         35.8490  -30.5480   20.9710 O.2   246  PHE246     -0.2718
     11  CB        36.7960  -30.4820   17.8550 C.3   246  PHE246      0.0547
     12  CG        37.6320  -29.2290   17.7980 C.ar  246  PHE246     -0.0202
     13  CD1       38.9840  -29.2920   17.4860 C.ar  246  PHE246     -0.0042
     14  CD2       37.0790  -27.9960   18.1210 C.ar  246  PHE246     -0.0042
     15  CE1       39.7770  -28.1450   17.4970 C.ar  246  PHE246     -0.0003
     16  CE2       37.8600  -26.8440   18.1370 C.ar  246  PHE246     -0.0003
     17  CZ        39.2150  -26.9190   17.8240 C.ar  246  PHE246     -0.0000
     18  N         38.0110  -29.9390   20.8100 N.am  247  THR247     -0.1939
     19  CA        37.9620  -29.1160   22.0130 C.3   247  THR247      0.2028
     20  C         39.1340  -28.1710   22.0850 C.2   247  THR247      0.2643
     21  O         40.2170  -28.4400   21.5480 O.2   247  THR247     -0.2714
     22  CB        37.9570  -29.9360   23.3160 C.3   247  THR247      0.1808
     23  OG1       37.9700  -29.0330   24.4320 O.3   247  THR247     -0.2208
     24  CG2       39.1780  -30.8390   23.3870 C.3   247  THR247      0.0379
     25  N         38.8980  -27.0580   22.7610 N.am  248  THR248     -0.1936
     26  CA        39.9070  -26.0340   22.9290 C.3   248  THR248      0.2028
     27  C         40.4100  -26.1050   24.3520 C.2   248  THR248      0.2642
     28  O         41.3120  -25.3650   24.7320 O.2   248  THR248     -0.2714
     29  CB        39.3090  -24.6600   22.7000 C.3   248  THR248      0.1808
     30  OG1       38.1670  -24.4990   23.5500 O.3   248  THR248     -0.2208
     31  CG2       38.8930  -24.5110   21.2560 C.3   248  THR248      0.0379
     32  N         39.8090  -26.9980   25.1360 N.am  249  ARG249     -0.1977
     33  CA        40.1840  -27.1720   26.5300 C.3   249  ARG249      0.1597
     34  C         40.6120  -28.6040   26.8250 C.2   249  ARG249      0.2287
     35  O         40.0420  -29.2730   27.6930 O.2   249  ARG249     -0.2864
     36  CB        39.0180  -26.7810   27.4370 C.3   249  ARG249      0.0334
     37  CG        38.5900  -25.3370   27.2990 C.3   249  ARG249      0.0492
     38  CD        39.7510  -24.3930   27.5780 C.3   249  ARG249      0.2205
     39  NE        40.2300  -24.4520   28.9610 N.pl3 249  ARG249     -0.0865
     40  CZ        39.4840  -24.1670   30.0250 C.cat 249  ARG249      0.5346
     41  NH1       38.2140  -23.8060   29.8700 N.pl3 249  ARG249      0.1354
     42  NH2       40.0100  -24.2300   31.2430 N.pl3 249  ARG249      0.1354
     43  N         21.7770  -29.2870   20.4330 N.3   327  TYR327     -0.1227
     44  CA        22.7020  -28.1920   20.6580 C.3   327  TYR327      0.1736
     45  C         24.0800  -28.5110   20.0580 C.2   327  TYR327      0.2595
     46  O         24.9370  -27.6350   19.9400 O.2   327  TYR327     -0.2718
     47  CB        22.7570  -27.8480   22.1610 C.3   327  TYR327      0.0548
     48  CG        23.7580  -28.5900   23.0110 C.ar  327  TYR327     -0.0200
     49  CD1       25.1290  -28.4040   22.8260 C.ar  327  TYR327     -0.0009
     50  CD2       23.3410  -29.4220   24.0510 C.ar  327  TYR327     -0.0009
     51  CE1       26.0650  -29.0240   23.6560 C.ar  327  TYR327      0.0417
     52  CE2       24.2770  -30.0470   24.8940 C.ar  327  TYR327      0.0417
     53  CZ        25.6390  -29.8380   24.6840 C.ar  327  TYR327      0.1957
     54  OH        26.5910  -30.4290   25.4840 O.3   327  TYR327     -0.2866
     55  N         24.2880  -29.7640   19.6610 N.am  328  VAL328     -0.1966
     56  CA        25.5530  -30.1300   19.0400 C.3   328  VAL328      0.1727
     57  C         25.3840  -30.0640   17.5330 C.2   328  VAL328      0.2616
     58  O         24.4250  -30.5980   16.9610 O.2   328  VAL328     -0.2715
     59  CB        26.0130  -31.5390   19.3950 C.3   328  VAL328      0.0290
     60  CG1       27.4160  -31.7570   18.8510 C.3   328  VAL328      0.0023
     61  CG2       25.9980  -31.7280   20.8800 C.3   328  VAL328      0.0023
     62  N         26.3380  -29.4220   16.8840 N.am  329  LEU329     -0.1977
     63  CA        26.2630  -29.2530   15.4530 C.3   329  LEU329      0.1596
     64  C         26.9880  -30.3280   14.6690 C.2   329  LEU329      0.2287
     65  O         28.2090  -30.4660   14.7700 O.2   329  LEU329     -0.2864
     66  CB        26.8280  -27.8810   15.0870 C.3   329  LEU329      0.0297
     67  CG        26.2520  -26.7360   15.9230 C.3   329  LEU329      0.0022
     68  CD1       27.0560  -25.4870   15.6230 C.3   329  LEU329      0.0001
     69  CD2       24.7610  -26.5320   15.6450 C.3   329  LEU329      0.0001
     70  N         29.9100  -28.8910   12.7940 N.3   332  TYR332     -0.1227
     71  CA        31.0580  -28.2810   13.4590 C.3   332  TYR332      0.1736
     72  C         32.0100  -29.3120   14.0560 C.2   332  TYR332      0.2596
     73  O         31.5870  -30.3220   14.6200 O.2   332  TYR332     -0.2718
     74  CB        30.5990  -27.3150   14.5700 C.3   332  TYR332      0.0548
     75  CG        31.7190  -26.4340   15.1130 C.ar  332  TYR332     -0.0200
     76  CD1       31.6980  -25.9640   16.4220 C.ar  332  TYR332     -0.0009
     77  CD2       32.7930  -26.0620   14.3070 C.ar  332  TYR332     -0.0009
     78  CE1       32.7250  -25.1470   16.9160 C.ar  332  TYR332      0.0417
     79  CE2       33.8150  -25.2460   14.7870 C.ar  332  TYR332      0.0417
     80  CZ        33.7790  -24.7940   16.0880 C.ar  332  TYR332      0.1957
     81  OH        34.8060  -23.9900   16.5530 O.3   332  TYR332     -0.2866
     82  N         33.3010  -29.0380   13.9260 N.am  333  GLY333     -0.1942
     83  CA        34.3140  -29.9180   14.4720 C.3   333  GLY333      0.2014
     84  C         34.2100  -31.3350   13.9680 C.2   333  GLY333      0.2640
     85  O         34.7440  -31.6520   12.9080 O.2   333  GLY333     -0.2714
     86  N         33.5310  -32.1870   14.7330 N.am  334  THR334     -0.1936
     87  CA        33.3550  -33.5900   14.3750 C.3   334  THR334      0.2028
     88  C         31.9480  -34.0640   14.7280 C.2   334  THR334      0.2643
     89  O         31.7170  -35.2560   14.8890 O.2   334  THR334     -0.2714
     90  CB        34.3450  -34.5040   15.1270 C.3   334  THR334      0.1808
     91  OG1       33.9930  -34.5190   16.5150 O.3   334  THR334     -0.2208
     92  CG2       35.7810  -34.0110   14.9850 C.3   334  THR334      0.0379
     93  N         31.0130  -33.1320   14.8700 N.am  335  GLY335     -0.1939
     94  CA        29.6470  -33.5040   15.1930 C.3   335  GLY335      0.2014
     95  C         29.5450  -34.1770   16.5420 C.2   335  GLY335      0.2639
     96  O         28.4580  -34.6020   16.9510 O.2   335  GLY335     -0.2714
     97  N         30.6790  -34.2610   17.2390 N.am  336  ALA336     -0.1963
     98  CA        30.7450  -34.8910   18.5610 C.3   336  ALA336      0.1728
     99  C         31.5410  -34.0460   19.5530 C.2   336  ALA336      0.2616
    100  O         32.5670  -33.4470   19.1910 O.2   336  ALA336     -0.2715
    101  CB        31.3770  -36.2630   18.4370 C.3   336  ALA336      0.0334
    102  N         31.0830  -34.0220   20.8050 N.am  337  ILE337     -0.1963
    103  CA        31.7450  -33.2360   21.8500 C.3   337  ILE337      0.1727
    104  C         31.8500  -33.9250   23.1870 C.2   337  ILE337      0.2616
    105  O         30.9110  -34.6050   23.6280 O.2   337  ILE337     -0.2715
    106  CB        31.0010  -31.9350   22.1380 C.3   337  ILE337      0.0290
    107  CG1       29.5990  -32.2450   22.6690 C.3   337  ILE337      0.0022
    108  CG2       30.9190  -31.1070   20.8960 C.3   337  ILE337      0.0023
    109  CD1       29.4260  -31.9500   24.1300 C.3   337  ILE337      0.0001
    110  N         32.9920  -33.7220   23.8380 N.am  338  MET338     -0.1977
    111  CA        33.2110  -34.2720   25.1640 C.3   338  MET338      0.1605
    112  C         32.6490  -33.2280   26.1220 C.2   338  MET338      0.2287
    113  O         33.0670  -32.0690   26.1080 O.2   338  MET338     -0.2864
    114  CB        34.6980  -34.4870   25.4210 C.3   338  MET338      0.0413
    115  CG        35.5050  -33.2190   25.3550 C.3   338  MET338      0.0598
    116  SD        37.1740  -33.4170   25.9780 S.3   338  MET338     -0.1393
    117  CE        36.8980  -33.1640   27.7290 C.3   338  MET338      0.0692
    118  N         32.0800  -25.6450   31.6370 N.3   344  ASP344     -0.1239
    119  CA        31.3530  -25.1450   30.4860 C.3   344  ASP344      0.1674
    120  C         29.8940  -24.9740   30.8460 C.2   344  ASP344      0.2266
    121  O         29.1610  -25.9510   30.9920 O.2   344  ASP344     -0.2867
    122  CB        31.4710  -26.0970   29.3060 C.3   344  ASP344      0.1410
    123  CG        30.9060  -25.5000   28.0370 C.2   344  ASP344      0.3668
    124  OD1       29.6870  -25.2180   28.0170 O.co2 344  ASP344     -0.2456
    125  OD2       31.6830  -25.2940   27.0730 O.co2 344  ASP344     -0.2456
    126  N         27.3180  -24.2810   29.2000 N.3   346  ARG346     -0.1231
    127  CA        26.3170  -24.8950   28.3230 C.3   346  ARG346      0.1694
    128  C         26.1330  -26.3680   28.7520 C.2   346  ARG346      0.2592
    129  O         24.9910  -26.8370   28.9390 O.2   346  ARG346     -0.2718
    130  CB        26.7650  -24.8010   26.8620 C.3   346  ARG346      0.0321
    131  CG        25.7680  -25.3270   25.8360 C.3   346  ARG346      0.0489
    132  CD        26.5310  -25.7750   24.5930 C.3   346  ARG346      0.2205
    133  NE        26.3200  -24.9270   23.4190 N.pl3 346  ARG346     -0.0865
    134  CZ        27.1900  -24.8200   22.4140 C.cat 346  ARG346      0.5346
    135  NH1       28.3300  -25.5000   22.4440 N.pl3 346  ARG346      0.1354
    136  NH2       26.9250  -24.0360   21.3750 N.pl3 346  ARG346      0.1354
    137  N         27.2600  -27.0740   28.9280 N.am  347  ASP347     -0.1974
    138  CA        27.2660  -28.4750   29.3620 C.3   347  ASP347      0.1709
    139  C         26.7560  -28.5470   30.7970 C.2   347  ASP347      0.2293
    140  O         25.9290  -29.3970   31.1290 O.2   347  ASP347     -0.2864
    141  CB        28.6770  -29.0480   29.3320 C.3   347  ASP347      0.1436
    142  CG        29.2610  -29.1050   27.9380 C.2   347  ASP347      0.3671
    143  OD1       28.6080  -28.6240   26.9890 O.co2 347  ASP347     -0.2456
    144  OD2       30.3820  -29.6340   27.7900 O.co2 347  ASP347     -0.2456
@<TRIPOS>BOND
     1    70    71    1
     2    85    84    2
     3    71    72    1
     4    71    74    1
     5    82    72   am
     6    82    83    1
     7    84    83    1
     8    84    86   am
     9    72    73    2
    10    77    79   ar
    11    77    75   ar
    12    87    88    1
    13    87    86    1
    14    87    90    1
    15    74    75    1
    16    64    65    2
    17    64    63    1
    18    88    93   am
    19    88    89    2
    20    79    80   ar
    21    93    94    1
    22    92    90    1
    23    66    63    1
    24    66    67    1
    25    75    76   ar
    26    90    91    1
    27    94    95    1
    28     1     2    1
    29    63    62    1
    30    68    67    1
    31    69    67    1
    32    80    81    1
    33    80    78   ar
    34    76    78   ar
    35     4     3    2
    36    95    96    2
    37    95    97   am
    38     2     3    1
    39     2     5    1
    40    62    57   am
    41    58    57    2
    42     5     6    1
    43    97    98    1
    44    13    15   ar
    45    13    12   ar
    46    15    17   ar
    47    57    56    1
    48    12    11    1
    49    12    14   ar
    50    17    16   ar
    51    11     8    1
    52    14    16   ar
    53   101    98    1
    54    98    99    1
    55    60    59    1
    56    56    59    1
    57    56    55    1
    58     8     7    1
    59     8     9    1
    60   100    99    2
    61    59    61    1
    62    99   102   am
    63    55    45   am
    64    46    45    2
    65    45    44    1
    66     9    18   am
    67     9    10    2
    68    43    44    1
    69    44    47    1
    70   102   103    1
    71    18    19    1
    72   108   106    1
    73    31    29    1
    74   136   134    1
    75    21    20    2
    76   103   106    1
    77   103   104    1
    78    19    20    1
    79    19    22    1
    80    20    25   am
    81   106   107    1
    82    47    48    1
    83   134   135    1
    84   134   133    2
    85   107   109    1
    86    29    26    1
    87    29    30    1
    88    25    26    1
    89    49    48   ar
    90    49    51   ar
    91    26    27    1
    92    48    50   ar
    93   104   105    2
    94   104   110   am
    95    22    24    1
    96    22    23    1
    97   133   132    1
    98    51    53   ar
    99   110   111    1
   100    50    52   ar
   101    27    28    2
   102    27    32   am
   103   132   131    1
   104    53    52   ar
   105    53    54    1
   106    32    33    1
   107   111   114    1
   108   111   112    1
   109   115   114    1
   110   115   116    1
   111   131   130    1
   112   116   117    1
   113   113   112    2
   114    33    34    1
   115    33    36    1
   116    34    35    2
   117   130   127    1
   118   143   142   ar
   119   125   123   ar
   120    37    36    1
   121    37    38    1
   122    38    39    1
   123   144   142   ar
   124   142   141    1
   125   124   123   ar
   126   123   122    1
   127   127   128    1
   128   127   126    1
   129   128   137   am
   130   128   129    2
   131   137   138    1
   132    39    40    2
   133   122   119    1
   134   141   138    1
   135   138   139    1
   136    41    40    1
   137    40    42    1
   138   119   120    1
   139   119   118    1
   140   139   140    2
   141   120   121    2
