@<TRIPOS>MOLECULE
tmp/2bteA01.pdb
 97 94 0 0 0
SMALL
GASTEIGER

@<TRIPOS>ATOM
      1  N         36.2330  -32.5270   19.0930 N.3   246  PHE246     -0.1227
      2  CA        37.1040  -31.3670   19.0670 C.3   246  PHE246      0.1736
      3  C         36.9290  -30.5640   20.3620 C.2   246  PHE246      0.2596
      4  O         35.8490  -30.5480   20.9710 O.2   246  PHE246     -0.2718
      5  CB        36.7960  -30.4820   17.8550 C.3   246  PHE246      0.0547
      6  CG        37.6320  -29.2290   17.7980 C.ar  246  PHE246     -0.0202
      7  CD1       38.9840  -29.2920   17.4860 C.ar  246  PHE246     -0.0042
      8  CD2       37.0790  -27.9960   18.1210 C.ar  246  PHE246     -0.0042
      9  CE1       39.7770  -28.1450   17.4970 C.ar  246  PHE246     -0.0003
     10  CE2       37.8600  -26.8440   18.1370 C.ar  246  PHE246     -0.0003
     11  CZ        39.2150  -26.9190   17.8240 C.ar  246  PHE246     -0.0000
     12  N         38.0110  -29.9390   20.8100 N.am  247  THR247     -0.1939
     13  CA        37.9620  -29.1160   22.0130 C.3   247  THR247      0.2028
     14  C         39.1340  -28.1710   22.0850 C.2   247  THR247      0.2643
     15  O         40.2170  -28.4400   21.5480 O.2   247  THR247     -0.2714
     16  CB        37.9570  -29.9360   23.3160 C.3   247  THR247      0.1808
     17  OG1       37.9700  -29.0330   24.4320 O.3   247  THR247     -0.2208
     18  CG2       39.1780  -30.8390   23.3870 C.3   247  THR247      0.0379
     19  N         38.8980  -27.0580   22.7610 N.am  248  THR248     -0.1936
     20  CA        39.9070  -26.0340   22.9290 C.3   248  THR248      0.2028
     21  C         40.4100  -26.1050   24.3520 C.2   248  THR248      0.2642
     22  O         41.3120  -25.3650   24.7320 O.2   248  THR248     -0.2714
     23  CB        39.3090  -24.6600   22.7000 C.3   248  THR248      0.1808
     24  OG1       38.1670  -24.4990   23.5500 O.3   248  THR248     -0.2208
     25  CG2       38.8930  -24.5110   21.2560 C.3   248  THR248      0.0379
     26  N         39.8090  -26.9980   25.1360 N.am  249  ARG249     -0.1977
     27  CA        40.1840  -27.1720   26.5300 C.3   249  ARG249      0.1597
     28  C         40.6120  -28.6040   26.8250 C.2   249  ARG249      0.2287
     29  O         40.0420  -29.2730   27.6930 O.2   249  ARG249     -0.2864
     30  CB        39.0180  -26.7810   27.4370 C.3   249  ARG249      0.0334
     31  CG        38.5900  -25.3370   27.2990 C.3   249  ARG249      0.0492
     32  CD        39.7510  -24.3930   27.5780 C.3   249  ARG249      0.2205
     33  NE        40.2300  -24.4520   28.9610 N.pl3 249  ARG249     -0.0865
     34  CZ        39.4840  -24.1670   30.0250 C.cat 249  ARG249      0.5346
     35  NH1       38.2140  -23.8060   29.8700 N.pl3 249  ARG249      0.1354
     36  NH2       40.0100  -24.2300   31.2430 N.pl3 249  ARG249      0.1354
     37  N         41.0130  -30.1430   30.3120 N.3   252  THR252     -0.1218
     38  CA        39.9360  -30.5500   31.1870 C.3   252  THR252      0.1862
     39  C         39.4440  -31.9350   30.8340 C.2   252  THR252      0.2287
     40  O         38.3640  -32.3580   31.2710 O.2   252  THR252     -0.2866
     41  CB        38.7750  -29.5710   31.0960 C.3   252  THR252      0.1770
     42  OG1       38.0420  -29.8130   29.8930 O.3   252  THR252     -0.2211
     43  CG2       39.3080  -28.1420   31.0810 C.3   252  THR252      0.0375
     44  N         31.0830  -34.0220   20.8050 N.3   337  ILE337     -0.1231
     45  CA        31.7450  -33.2360   21.8500 C.3   337  ILE337      0.1692
     46  C         31.8500  -33.9250   23.1870 C.2   337  ILE337      0.2592
     47  O         30.9110  -34.6050   23.6280 O.2   337  ILE337     -0.2718
     48  CB        31.0010  -31.9350   22.1380 C.3   337  ILE337      0.0266
     49  CG1       29.5990  -32.2450   22.6690 C.3   337  ILE337      0.0019
     50  CG2       30.9190  -31.1070   20.8960 C.3   337  ILE337      0.0020
     51  CD1       29.4260  -31.9500   24.1300 C.3   337  ILE337      0.0001
     52  N         32.9920  -33.7220   23.8380 N.am  338  MET338     -0.1965
     53  CA        33.2110  -34.2720   25.1640 C.3   338  MET338      0.1736
     54  C         32.6490  -33.2280   26.1220 C.2   338  MET338      0.2616
     55  O         33.0670  -32.0690   26.1080 O.2   338  MET338     -0.2715
     56  CB        34.6980  -34.4870   25.4210 C.3   338  MET338      0.0427
     57  CG        35.5050  -33.2190   25.3550 C.3   338  MET338      0.0599
     58  SD        37.1740  -33.4170   25.9780 S.3   338  MET338     -0.1393
     59  CE        36.8980  -33.1640   27.7290 C.3   338  MET338      0.0692
     60  N         31.6870  -33.6400   26.9370 N.am  339  ALA339     -0.1963
     61  CA        31.0400  -32.7440   27.8980 C.3   339  ALA339      0.1728
     62  C         31.7820  -32.6370   29.2310 C.2   339  ALA339      0.2616
     63  O         32.0610  -33.6540   29.8660 O.2   339  ALA339     -0.2715
     64  CB        29.5970  -33.2130   28.1580 C.3   339  ALA339      0.0334
     65  N         32.0770  -31.4100   29.6590 N.am  340  VAL340     -0.1977
     66  CA        32.7670  -31.1800   30.9260 C.3   340  VAL340      0.1596
     67  C         31.9690  -30.1440   31.7070 C.2   340  VAL340      0.2287
     68  O         32.4150  -29.0170   31.8870 O.2   340  VAL340     -0.2864
     69  CB        34.1880  -30.6490   30.6810 C.3   340  VAL340      0.0276
     70  CG1       34.9200  -30.5170   31.9830 C.3   340  VAL340      0.0022
     71  CG2       34.9400  -31.5820   29.7540 C.3   340  VAL340      0.0022
     72  N         33.3710  -27.2370   33.6290 N.3   343  HIS343     -0.1226
     73  CA        34.0170  -26.0890   33.0160 C.3   343  HIS343      0.1752
     74  C         33.4020  -25.5360   31.7290 C.2   343  HIS343      0.2596
     75  O         34.1040  -25.0080   30.8550 O.2   343  HIS343     -0.2718
     76  CB        35.4910  -26.4190   32.8330 C.3   343  HIS343      0.0759
     77  CG        36.1340  -26.9290   34.0810 C.ar  343  HIS343      0.0818
     78  ND1       35.8540  -26.4040   35.3270 N.ar  343  HIS343     -0.2268
     79  CD2       37.0320  -27.9170   34.2940 C.ar  343  HIS343      0.1154
     80  CE1       36.5460  -27.0470   36.2430 C.ar  343  HIS343      0.1986
     81  NE2       37.2720  -27.9760   35.6430 N.ar  343  HIS343     -0.2212
     82  N         32.0800  -25.6450   31.6370 N.am  344  ASP344     -0.1974
     83  CA        31.3530  -25.1450   30.4860 C.3   344  ASP344      0.1709
     84  C         29.8940  -24.9740   30.8460 C.2   344  ASP344      0.2293
     85  O         29.1610  -25.9510   30.9920 O.2   344  ASP344     -0.2864
     86  CB        31.4710  -26.0970   29.3060 C.3   344  ASP344      0.1436
     87  CG        30.9060  -25.5000   28.0370 C.2   344  ASP344      0.3671
     88  OD1       29.6870  -25.2180   28.0170 O.co2 344  ASP344     -0.2456
     89  OD2       31.6830  -25.2940   27.0730 O.co2 344  ASP344     -0.2456
     90  N         27.2600  -27.0740   28.9280 N.3   347  ASP347     -0.1239
     91  CA        27.2660  -28.4750   29.3620 C.3   347  ASP347      0.1674
     92  C         26.7560  -28.5470   30.7970 C.2   347  ASP347      0.2266
     93  O         25.9290  -29.3970   31.1290 O.2   347  ASP347     -0.2867
     94  CB        28.6770  -29.0480   29.3320 C.3   347  ASP347      0.1410
     95  CG        29.2610  -29.1050   27.9380 C.2   347  ASP347      0.3668
     96  OD1       28.6080  -28.6240   26.9890 O.co2 347  ASP347     -0.2456
     97  OD2       30.3820  -29.6340   27.7900 O.co2 347  ASP347     -0.2456
@<TRIPOS>BOND
     1     7     9   ar
     2     7     6   ar
     3     9    11   ar
     4     6     5    1
     5     6     8   ar
     6    11    10   ar
     7     5     2    1
     8     8    10   ar
     9     2     1    1
    10     2     3    1
    11     3    12   am
    12     3     4    2
    13    44    45    1
    14    12    13    1
    15    50    48    1
    16    25    23    1
    17    15    14    2
    18    45    48    1
    19    45    46    1
    20    13    14    1
    21    13    16    1
    22    14    19   am
    23    48    49    1
    24    49    51    1
    25    23    20    1
    26    23    24    1
    27    19    20    1
    28    20    21    1
    29    46    47    2
    30    46    52   am
    31    16    18    1
    32    16    17    1
    33    52    53    1
    34    21    22    2
    35    21    26   am
    36    26    27    1
    37    53    56    1
    38    53    54    1
    39    57    56    1
    40    57    58    1
    41    58    59    1
    42    55    54    2
    43    54    60   am
    44    27    28    1
    45    27    30    1
    46    28    29    2
    47    60    61    1
    48    96    95   ar
    49    89    87   ar
    50    31    30    1
    51    31    32    1
    52    32    33    1
    53    97    95   ar
    54    61    64    1
    55    61    62    1
    56    95    94    1
    57    88    87   ar
    58    87    86    1
    59    90    91    1
    60    33    34    2
    61    62    65   am
    62    62    63    2
    63    86    83    1
    64    94    91    1
    65    91    92    1
    66    65    66    1
    67    71    69    1
    68    35    34    1
    69    42    41    1
    70    34    36    1
    71    37    38    1
    72    83    84    1
    73    83    82    1
    74    69    66    1
    75    69    70    1
    76    92    93    2
    77    39    38    1
    78    39    40    2
    79    84    85    2
    80    75    74    2
    81    66    67    1
    82    43    41    1
    83    41    38    1
    84    82    74   am
    85    67    68    2
    86    74    73    1
    87    76    73    1
    88    76    77    1
    89    73    72    1
    90    77    79   ar
    91    77    78   ar
    92    79    81   ar
    93    78    80   ar
    94    81    80   ar
