@<TRIPOS>MOLECULE
tmp/2btmB00.pdb
 93 87 0 0 0
SMALL
GASTEIGER

@<TRIPOS>ATOM
      1  N        -26.3010   24.0270   30.8340 N.3     8  ASN8       -0.1240
      2  CA       -25.9450   24.0320   32.2460 C.3     8  ASN8        0.1653
      3  C        -27.0650   23.3290   32.9890 C.2     8  ASN8        0.2266
      4  O        -28.1070   23.9300   33.2530 O.2     8  ASN8       -0.2867
      5  CB       -25.8120   25.4740   32.7520 C.3     8  ASN8        0.1155
      6  CG       -25.5430   25.5570   34.2510 C.2     8  ASN8        0.2627
      7  OD1      -25.6360   26.6370   34.8460 O.2     8  ASN8       -0.2716
      8  ND2      -25.2060   24.4280   34.8660 N.am    8  ASN8       -0.0877
      9  N        -27.0330   22.4370   35.9800 N.3    10  LYS10      -0.1245
     10  CA       -27.0550   22.8800   37.3680 C.3    10  LYS10       0.1561
     11  C        -27.1740   21.6370   38.2320 C.2    10  LYS10       0.2260
     12  O        -26.7160   20.5690   37.8310 O.2    10  LYS10      -0.2867
     13  CB       -28.2190   23.8440   37.6080 C.3    10  LYS10       0.0271
     14  CG       -28.1220   25.0720   36.7180 C.3    10  LYS10       0.0035
     15  CD       -29.1580   26.1330   37.0210 C.3    10  LYS10       0.0206
     16  CE       -29.0800   27.2320   35.9670 C.3    10  LYS10       0.1093
     17  NZ       -29.9310   28.4130   36.2660 N.3    10  LYS10      -0.1314
     18  N        -20.9090   32.0230   37.6380 N.3    94  HIS94      -0.1241
     19  CA       -22.3470   31.9790   37.4190 C.3    94  HIS94       0.1621
     20  C        -22.9690   32.7840   38.5610 C.2    94  HIS94       0.2264
     21  O        -22.5520   32.6480   39.7150 O.2    94  HIS94      -0.2867
     22  CB       -22.8510   30.5380   37.4570 C.3    94  HIS94       0.0745
     23  CG       -24.2500   30.3860   36.9530 C.ar   94  HIS94       0.0817
     24  ND1      -25.3560   30.6350   37.7380 N.ar   94  HIS94      -0.2268
     25  CD2      -24.7210   30.1110   35.7140 C.ar   94  HIS94       0.1154
     26  CE1      -26.4480   30.5250   37.0020 C.ar   94  HIS94       0.1986
     27  NE2      -26.0890   30.2090   35.7710 N.ar   94  HIS94      -0.2212
     28  N        -25.4730   37.1500   31.1160 N.3   166  GLU166     -0.1245
     29  CA       -26.7300   36.6490   31.6250 C.3   166  GLU166      0.1567
     30  C        -27.3760   37.6090   32.5990 C.2   166  GLU166      0.2260
     31  O        -27.0360   37.6200   33.7860 O.2   166  GLU166     -0.2867
     32  CB       -26.5280   35.3080   32.3220 C.3   166  GLU166      0.0388
     33  CG       -25.9050   34.2380   31.4580 C.3   166  GLU166      0.1160
     34  CD       -26.0910   32.8590   32.0540 C.2   166  GLU166      0.3649
     35  OE1      -25.6720   32.6510   33.2150 O.co2 166  GLU166     -0.2457
     36  OE2      -26.6630   31.9900   31.3650 O.co2 166  GLU166     -0.2457
     37  N        -32.5420   34.7510   34.4720 N.3   171  ILE171     -0.1231
     38  CA       -32.2140   33.3660   34.7710 C.3   171  ILE171      0.1692
     39  C        -33.3630   32.5790   35.3900 C.2   171  ILE171      0.2592
     40  O        -33.8340   32.8810   36.4940 O.2   171  ILE171     -0.2718
     41  CB       -30.9710   33.2850   35.6840 C.3   171  ILE171      0.0266
     42  CG1      -29.7610   33.8630   34.9340 C.3   171  ILE171      0.0019
     43  CG2      -30.7290   31.8360   36.1120 C.3   171  ILE171      0.0020
     44  CD1      -28.5160   34.0400   35.7730 C.3   171  ILE171      0.0001
     45  N        -33.8060   31.5650   34.6540 N.am  172  GLY172     -0.1957
     46  CA       -34.8890   30.7120   35.1060 C.3   172  GLY172      0.1869
     47  C        -36.1720   31.4450   35.4430 C.2   172  GLY172      0.2309
     48  O        -37.0440   30.8820   36.0980 O.2   172  GLY172     -0.2863
     49  N        -30.1100   33.1210   29.9020 N.3   211  GLY211     -0.1210
     50  CA       -31.2320   33.6000   30.6820 C.3   211  GLY211      0.1956
     51  C        -32.5400   33.3720   29.9560 C.2   211  GLY211      0.2613
     52  O        -32.9720   34.1910   29.1420 O.2   211  GLY211     -0.2717
     53  N        -33.1500   32.2310   30.2450 N.am  212  SER212     -0.1938
     54  CA       -34.4210   31.8310   29.6660 C.3   212  SER212      0.2055
     55  C        -34.3940   31.6130   28.1640 C.2   212  SER212      0.2642
     56  O        -35.3690   31.8840   27.4650 O.2   212  SER212     -0.2714
     57  CB       -35.5060   32.8420   30.0470 C.3   212  SER212      0.2130
     58  OG       -35.7660   32.7640   31.4400 O.3   212  SER212     -0.2179
     59  N        -33.2660   31.1230   27.6660 N.am  213  VAL213     -0.1977
     60  CA       -33.1420   30.8340   26.2470 C.3   213  VAL213      0.1596
     61  C        -33.8990   29.5320   26.0080 C.2   213  VAL213      0.2287
     62  O        -33.7840   28.5950   26.7920 O.2   213  VAL213     -0.2864
     63  CB       -31.6760   30.6270   25.8390 C.3   213  VAL213      0.0276
     64  CG1      -31.6050   30.1250   24.3950 C.3   213  VAL213      0.0022
     65  CG2      -30.9080   31.9240   25.9950 C.3   213  VAL213      0.0022
     66  N        -25.9960   30.1280   26.7330 N.3   231  LEU231     -0.1231
     67  CA       -25.7200   29.3630   27.9340 C.3   231  LEU231      0.1693
     68  C        -27.1590   29.0410   28.3390 C.2   231  LEU231      0.2592
     69  O        -27.9450   29.9420   28.6490 O.2   231  LEU231     -0.2718
     70  CB       -25.0460   30.2350   28.9930 C.3   231  LEU231      0.0284
     71  CG       -24.1530   29.4860   29.9880 C.3   231  LEU231      0.0019
     72  CD1      -23.7610   30.4110   31.1260 C.3   231  LEU231      0.0001
     73  CD2      -24.8730   28.2800   30.5220 C.3   231  LEU231      0.0001
     74  N        -27.5070   27.7610   28.3220 N.am  232  VAL232     -0.1966
     75  CA       -28.8710   27.3480   28.6090 C.3   232  VAL232      0.1727
     76  C        -29.0550   26.4560   29.8320 C.2   232  VAL232      0.2617
     77  O        -28.4570   25.3780   29.9340 O.2   232  VAL232     -0.2715
     78  CB       -29.4550   26.6190   27.3820 C.3   232  VAL232      0.0290
     79  CG1      -30.9520   26.4190   27.5510 C.3   232  VAL232      0.0023
     80  CG2      -29.1430   27.4100   26.1160 C.3   232  VAL232      0.0023
     81  N        -29.9020   26.9110   30.7490 N.am  233  GLY233     -0.1940
     82  CA       -30.1870   26.1520   31.9510 C.3   233  GLY233      0.2014
     83  C        -31.3820   25.2260   31.7590 C.2   233  GLY233      0.2639
     84  O        -31.2650   24.1420   31.1790 O.2   233  GLY233     -0.2714
     85  N        -32.5400   25.6690   32.2320 N.am  234  GLY234     -0.1939
     86  CA       -33.7530   24.8780   32.1320 C.3   234  GLY234      0.2014
     87  C        -33.9610   24.0560   30.8740 C.2   234  GLY234      0.2638
     88  O        -34.1620   22.8440   30.9500 O.2   234  GLY234     -0.2714
     89  N        -33.9100   24.7030   29.7140 N.am  235  ALA235     -0.1977
     90  CA       -34.1350   24.0200   28.4420 C.3   235  ALA235      0.1597
     91  C        -33.0320   23.0590   27.9770 C.2   235  ALA235      0.2287
     92  O        -33.0780   22.5580   26.8540 O.2   235  ALA235     -0.2864
     93  CB       -34.4070   25.0550   27.3580 C.3   235  ALA235      0.0319
@<TRIPOS>BOND
     1    64    63    1
     2    63    65    1
     3    63    60    1
     4    61    60    1
     5    61    62    2
     6    80    78    1
     7    60    59    1
     8    66    67    1
     9    92    91    2
    10    93    90    1
    11    78    79    1
    12    78    75    1
    13    56    55    2
    14    59    55   am
    15    67    68    1
    16    67    70    1
    17    91    90    1
    18    55    54    1
    19    74    68   am
    20    74    75    1
    21    68    69    2
    22    90    89    1
    23    75    76    1
    24    70    71    1
    25    52    51    2
    26    54    57    1
    27    54    53    1
    28    89    87   am
    29    76    77    2
    30    76    81   am
    31    49    50    1
    32    51    53   am
    33    51    50    1
    34    71    73    1
    35    71    72    1
    36    57    58    1
    37    81    82    1
    38     1     2    1
    39    87    88    2
    40    87    86    1
    41    28    29    1
    42    84    83    2
    43    36    34   ar
    44    33    34    1
    45    33    32    1
    46    29    32    1
    47    29    30    1
    48    83    82    1
    49    83    85   am
    50    34    35   ar
    51    86    85    1
    52     2     5    1
    53     2     3    1
    54    30    31    2
    55     5     6    1
    56     3     4    2
    57     6     7    2
    58     6     8   am
    59    37    38    1
    60    45    46    1
    61    45    39   am
    62    38    39    1
    63    38    41    1
    64    42    41    1
    65    42    44    1
    66    46    47    1
    67    39    40    2
    68    47    48    2
    69    41    43    1
    70    25    27   ar
    71    25    23   ar
    72    27    26   ar
    73    16    17    1
    74    16    15    1
    75     9    10    1
    76    14    15    1
    77    14    13    1
    78    23    22    1
    79    23    24   ar
    80    26    24   ar
    81    10    13    1
    82    10    11    1
    83    19    22    1
    84    19    18    1
    85    19    20    1
    86    12    11    2
    87    20    21    2
