@<TRIPOS>MOLECULE
tmp/2btoB00.pdb
 185 173 0 0 0
SMALL
GASTEIGER

@<TRIPOS>ATOM
      1  N        105.1960  -14.5010   30.3690 N.3     9  ILE9       -0.1231
      2  CA       106.1030  -13.6320   31.1200 C.3     9  ILE9        0.1692
      3  C        107.5100  -13.6260   30.5260 C.2     9  ILE9        0.2593
      4  O        108.1070  -14.6820   30.3060 O.2     9  ILE9       -0.2718
      5  CB       106.2630  -14.0500   32.6220 C.3     9  ILE9        0.0266
      6  CG1      105.0110  -14.7430   33.2100 C.3     9  ILE9        0.0019
      7  CG2      106.7300  -12.8660   33.4620 C.3     9  ILE9        0.0020
      8  CD1      103.7410  -13.8760   33.2360 C.3     9  ILE9        0.0001
      9  N        108.0370  -12.4230   30.2960 N.am   10  GLY10      -0.1942
     10  CA       109.4090  -12.2360   29.8220 C.3    10  GLY10       0.2014
     11  C        109.6060  -12.4370   28.3340 C.2    10  GLY10       0.2639
     12  O        108.6520  -12.7220   27.6070 O.2    10  GLY10      -0.2714
     13  N        110.8530  -12.3050   27.8830 N.am   11  GLN11      -0.1963
     14  CA       111.1820  -12.3560   26.4540 C.3    11  GLN11       0.1733
     15  C        110.7010  -13.6460   25.7850 C.2    11  GLN11       0.2616
     16  O        109.8380  -13.6140   24.8960 O.2    11  GLN11      -0.2715
     17  CB       112.6900  -12.1680   26.2270 C.3    11  GLN11       0.0408
     18  CG       113.1420  -12.4670   24.7960 C.3    11  GLN11       0.0908
     19  CD       114.4070  -11.7430   24.4120 C.2    11  GLN11       0.2608
     20  OE1      115.4750  -11.9960   24.9620 O.2    11  GLN11      -0.2717
     21  NE2      114.2950  -10.8310   23.4550 N.am   11  GLN11      -0.0878
     22  N        111.2770  -14.7610   26.2240 N.am   12  ALA12      -0.1963
     23  CA       110.9850  -16.0670   25.6860 C.3    12  ALA12       0.1728
     24  C        109.4860  -16.3280   25.7380 C.2    12  ALA12       0.2616
     25  O        108.8890  -16.6730   24.7260 O.2    12  ALA12      -0.2715
     26  CB       111.7490  -17.1380   26.4660 C.3    12  ALA12       0.0334
     27  N        108.8890  -16.1270   26.9130 N.am   13  GLY13      -0.1955
     28  CA       107.4670  -16.3500   27.1240 C.3    13  GLY13       0.1869
     29  C        106.6240  -15.6470   26.0840 C.2    13  GLY13       0.2309
     30  O        105.8300  -16.2740   25.3770 O.2    13  GLY13      -0.2863
     31  N        107.5170  -14.1330   23.1920 N.3    15  GLN15      -0.1231
     32  CA       107.8310  -14.4680   21.8020 C.3    15  GLN15       0.1698
     33  C        107.1630  -15.8110   21.4390 C.2    15  GLN15       0.2592
     34  O        106.5650  -15.9410   20.3610 O.2    15  GLN15      -0.2718
     35  CB       109.3410  -14.4840   21.5510 C.3    15  GLN15       0.0381
     36  CG       109.9980  -13.1020   21.6770 C.3    15  GLN15       0.0905
     37  CD       111.4850  -13.0500   21.3170 C.2    15  GLN15       0.2608
     38  OE1      112.2200  -14.0100   21.4940 O.2    15  GLN15      -0.2717
     39  NE2      111.9310  -11.9010   20.8450 N.am   15  GLN15      -0.0878
     40  N        107.2360  -16.7840   22.3490 N.am   16  ILE16      -0.1980
     41  CA       106.5030  -18.0180   22.1880 C.3    16  ILE16       0.1595
     42  C        104.9910  -17.7440   22.1780 C.2    16  ILE16       0.2287
     43  O        104.2610  -18.2710   21.3330 O.2    16  ILE16      -0.2864
     44  CB       106.8610  -19.0540   23.2810 C.3    16  ILE16       0.0276
     45  CG1      108.3250  -19.4930   23.1430 C.3    16  ILE16       0.0022
     46  CG2      105.9370  -20.2730   23.1820 C.3    16  ILE16       0.0022
     47  CD1      108.9690  -19.9120   24.4300 C.3    16  ILE16       0.0001
     48  N        105.8760   -8.1460   30.7680 N.3    70  ASP70      -0.1239
     49  CA       107.3300   -8.0190   30.7620 C.3    70  ASP70       0.1674
     50  C        107.7750   -6.7930   31.5870 C.2    70  ASP70       0.2266
     51  O        106.9550   -5.9330   31.9200 O.2    70  ASP70      -0.2867
     52  CB       107.8690   -7.9530   29.3240 C.3    70  ASP70       0.1410
     53  CG       109.3170   -8.4460   29.2110 C.2    70  ASP70       0.3668
     54  OD1      109.6980   -8.9550   28.1370 O.co2  70  ASP70      -0.2456
     55  OD2      110.0890   -8.3250   30.1970 O.co2  70  ASP70      -0.2456
     56  N        111.1580   -5.2370   30.6650 N.3    72  GLU72      -0.1245
     57  CA       111.6990   -4.5930   29.4760 C.3    72  GLU72       0.1567
     58  C        110.5720   -4.5320   28.4340 C.2    72  GLU72       0.2260
     59  O        109.8210   -5.4900   28.3160 O.2    72  GLU72      -0.2867
     60  CB       112.8830   -5.4150   28.9620 C.3    72  GLU72       0.0388
     61  CG       114.0020   -4.5870   28.3370 C.3    72  GLU72       0.1160
     62  CD       113.7390   -4.2550   26.8750 C.2    72  GLU72       0.3649
     63  OE1      114.1710   -3.1800   26.4250 O.co2  72  GLU72      -0.2457
     64  OE2      113.0920   -5.0730   26.1800 O.co2  72  GLU72      -0.2457
     65  N        114.7820   -3.8680   32.3240 N.3    98  GLY98      -0.1210
     66  CA       114.7440   -5.3240   32.2580 C.3    98  GLY98       0.1956
     67  C        115.0780   -5.6980   33.6820 C.2    98  GLY98       0.2612
     68  O        115.3760   -4.8200   34.4980 O.2    98  GLY98      -0.2717
     69  N        115.0200   -6.9830   34.0010 N.am   99  ALA99      -0.1965
     70  CA       115.3960   -7.4360   35.3340 C.3    99  ALA99       0.1728
     71  C        116.8780   -7.7590   35.3520 C.2    99  ALA99       0.2617
     72  O        117.3980   -8.2560   36.3520 O.2    99  ALA99      -0.2715
     73  CB       114.5710   -8.6580   35.7380 C.3    99  ALA99       0.0334
     74  N        117.5460   -7.4850   34.2320 N.am  100  GLY100     -0.1940
     75  CA       118.9780   -7.7380   34.0720 C.3   100  GLY100      0.2014
     76  C        119.4030   -9.1610   34.3930 C.2   100  GLY100      0.2639
     77  O        120.5000   -9.3780   34.9090 O.2   100  GLY100     -0.2714
     78  N        118.5370  -10.1320   34.0950 N.am  101  GLY101     -0.1954
     79  CA       118.8240  -11.5310   34.3770 C.3   101  GLY101      0.1869
     80  C        118.9320  -11.8140   35.8620 C.2   101  GLY101      0.2309
     81  O        119.7460  -12.6310   36.2920 O.2   101  GLY101     -0.2863
     82  N        110.3940  -18.5300   30.2390 N.3   140  ALA140     -0.1245
     83  CA       111.7500  -19.0710   30.3450 C.3   140  ALA140      0.1562
     84  C        112.1590  -18.8210   31.7660 C.2   140  ALA140      0.2260
     85  O        111.7330  -17.8240   32.3520 O.2   140  ALA140     -0.2867
     86  CB       112.6950  -18.3410   29.4210 C.3   140  ALA140      0.0290
     87  N        115.5880  -18.9260   32.8200 N.3   142  GLY142     -0.1210
     88  CA       117.0070  -18.5720   32.8790 C.3   142  GLY142      0.1956
     89  C        117.2560  -17.0850   33.0870 C.2   142  GLY142      0.2612
     90  O        118.3370  -16.6930   33.5040 O.2   142  GLY142     -0.2717
     91  N        116.2550  -16.2590   32.7810 N.am  143  GLY143     -0.1942
     92  CA       116.3330  -14.8100   32.9760 C.3   143  GLY143      0.2014
     93  C        115.7230  -14.4170   34.3080 C.2   143  GLY143      0.2639
     94  O        115.6090  -15.2520   35.2060 O.2   143  GLY143     -0.2714
     95  N        115.3080  -13.1600   34.4360 N.am  144  GLY144     -0.1939
     96  CA       114.8410  -12.6510   35.7250 C.3   144  GLY144      0.2014
     97  C        113.3800  -12.2510   35.8120 C.2   144  GLY144      0.2640
     98  O        112.8320  -12.1180   36.9050 O.2   144  GLY144     -0.2714
     99  N        112.7430  -12.0390   34.6730 N.am  145  THR145     -0.1936
    100  CA       111.3240  -11.7230   34.6810 C.3   145  THR145      0.2028
    101  C        110.4820  -13.0140   34.6870 C.2   145  THR145      0.2642
    102  O        109.7720  -13.2990   35.6580 O.2   145  THR145     -0.2714
    103  CB       110.9600  -10.7930   33.5170 C.3   145  THR145      0.1808
    104  OG1      111.7980   -9.6260   33.5750 O.3   145  THR145     -0.2208
    105  CG2      109.5080  -10.3750   33.6120 C.3   145  THR145      0.0379
    106  N        110.5850  -13.8040   33.6220 N.am  146  GLY146     -0.1954
    107  CA       109.9180  -15.0970   33.5860 C.3   146  GLY146      0.1869
    108  C        110.1100  -15.9080   34.8640 C.2   146  GLY146      0.2309
    109  O        109.1520  -16.4910   35.3720 O.2   146  GLY146     -0.2863
    110  N        110.8140  -22.8410   29.8240 N.3   171  VAL171     -0.1231
    111  CA       111.9900  -23.0490   28.9940 C.3   171  VAL171      0.1692
    112  C        113.2380  -23.0170   29.8760 C.2   171  VAL171      0.2592
    113  O        113.4000  -22.1360   30.7260 O.2   171  VAL171     -0.2718
    114  CB       112.0990  -22.0140   27.8480 C.3   171  VAL171      0.0266
    115  CG1      113.2310  -22.3770   26.9070 C.3   171  VAL171      0.0020
    116  CG2      110.8120  -21.9380   27.0640 C.3   171  VAL171      0.0020
    117  N        114.1030  -24.0090   29.6770 N.am  172  LEU172     -0.1966
    118  CA       115.3160  -24.1730   30.4530 C.3   172  LEU172      0.1713
    119  C        116.5290  -23.7710   29.6210 C.2   172  LEU172      0.2458
    120  O        116.5760  -24.0480   28.4200 O.2   172  LEU172     -0.2730
    121  CB       115.4500  -25.6240   30.9130 C.3   172  LEU172      0.0310
    122  CG       114.2980  -26.2830   31.6750 C.3   172  LEU172      0.0022
    123  CD1      114.7570  -27.6130   32.2030 C.3   172  LEU172      0.0001
    124  CD2      113.7900  -25.4550   32.8200 C.3   172  LEU172      0.0001
    125  N        117.5180  -23.1230   30.2590 N.am  173  PRO173     -0.2716
    126  CA       118.6830  -22.6050   29.5400 C.3   173  PRO173      0.1536
    127  C        119.5960  -23.7200   29.0520 C.2   173  PRO173      0.2599
    128  O        119.5740  -24.8300   29.6100 O.2   173  PRO173     -0.2715
    129  CB       119.4010  -21.7590   30.5920 C.3   173  PRO173      0.0310
    130  CG       118.9790  -22.3040   31.8860 C.3   173  PRO173      0.0237
    131  CD       117.5910  -22.8500   31.7050 C.3   173  PRO173      0.0939
    132  N        120.3970  -23.4320   28.0270 N.am  174  SER174     -0.1950
    133  CA       121.2750  -24.4550   27.4480 C.3   174  SER174      0.1924
    134  C        122.7580  -24.1740   27.7070 C.2   174  SER174      0.2314
    135  O        123.2170  -23.0450   27.5170 O.2   174  SER174     -0.2863
    136  CB       120.9790  -24.6450   25.9490 C.3   174  SER174      0.2116
    137  OG       121.8950  -23.9470   25.1280 O.3   174  SER174     -0.2180
    138  N        122.2330  -17.7790   34.5220 N.3   178  GLU178     -0.1245
    139  CA       121.0930  -18.6510   34.1980 C.3   178  GLU178      0.1567
    140  C        120.8760  -19.8390   35.1480 C.2   178  GLU178      0.2260
    141  O        119.7260  -20.1740   35.4500 O.2   178  GLU178     -0.2867
    142  CB       121.1880  -19.1480   32.7510 C.3   178  GLU178      0.0388
    143  CG       120.8600  -18.0760   31.7110 C.3   178  GLU178      0.1160
    144  CD       121.1420  -18.5000   30.2730 C.2   178  GLU178      0.3649
    145  OE1      120.9560  -17.6570   29.3680 O.co2 178  GLU178     -0.2457
    146  OE2      121.5530  -19.6580   30.0410 O.co2 178  GLU178     -0.2457
    147  N        116.0070  -26.0080   26.0900 N.3   201  ASN201     -0.1240
    148  CA       116.6510  -25.3310   24.9730 C.3   201  ASN201      0.1653
    149  C        117.7960  -26.1300   24.3670 C.2   201  ASN201      0.2266
    150  O        118.0550  -26.0350   23.1690 O.2   201  ASN201     -0.2867
    151  CB       117.1360  -23.9380   25.3730 C.3   201  ASN201      0.1155
    152  CG       116.1360  -22.8390   25.0200 C.2   201  ASN201      0.2627
    153  OD1      115.1010  -23.0870   24.3820 O.2   201  ASN201     -0.2716
    154  ND2      116.4420  -21.6170   25.4390 N.am  201  ASN201     -0.0877
    155  N        116.1220  -18.3040   17.8370 N.3   219  VAL219     -0.1245
    156  CA       115.0120  -18.5470   18.7630 C.3   219  VAL219      0.1561
    157  C        113.6820  -18.7590   18.0320 C.2   219  VAL219      0.2260
    158  O        112.8000  -19.4410   18.5460 O.2   219  VAL219     -0.2867
    159  CB       114.8730  -17.4330   19.8390 C.3   219  VAL219      0.0252
    160  CG1      116.1040  -17.3950   20.7370 C.3   219  VAL219      0.0019
    161  CG2      114.6090  -16.0820   19.2000 C.3   219  VAL219      0.0019
    162  N        113.4920  -22.4320   17.3400 N.3   222  LEU222     -0.1231
    163  CA       113.1940  -23.1650   18.5500 C.3   222  LEU222      0.1693
    164  C        111.7310  -23.0200   18.9320 C.2   222  LEU222      0.2592
    165  O        111.1420  -23.9500   19.4920 O.2   222  LEU222     -0.2718
    166  CB       114.0870  -22.7050   19.7030 C.3   222  LEU222      0.0284
    167  CG       115.6180  -22.6650   19.5590 C.3   222  LEU222      0.0019
    168  CD1      116.2290  -22.4800   20.9360 C.3   222  LEU222      0.0001
    169  CD2      116.2150  -23.8990   18.8800 C.3   222  LEU222      0.0001
    170  N        111.1560  -21.8580   18.6210 N.am  223  ASN223     -0.1974
    171  CA       109.7770  -21.5490   18.9740 C.3   223  ASN223      0.1688
    172  C        108.7710  -22.2870   18.0990 C.2   223  ASN223      0.2292
    173  O        107.6590  -22.5690   18.5330 O.2   223  ASN223     -0.2864
    174  CB       109.5300  -20.0450   18.9080 C.3   223  ASN223      0.1181
    175  CG       110.2570  -19.2890   20.0000 C.2   223  ASN223      0.2629
    176  OD1      110.7080  -19.8820   20.9750 O.2   223  ASN223     -0.2716
    177  ND2      110.3720  -17.9790   19.8460 N.am  223  ASN223     -0.0877
    178  N        108.2570  -25.5480   19.8740 N.3   226  ILE226     -0.1245
    179  CA       107.4320  -25.3800   21.0610 C.3   226  ILE226      0.1561
    180  C        105.9750  -25.1540   20.6490 C.2   226  ILE226      0.2260
    181  O        105.0680  -25.7110   21.2510 O.2   226  ILE226     -0.2867
    182  CB       107.9340  -24.2160   21.9510 C.3   226  ILE226      0.0252
    183  CG1      109.3660  -24.4820   22.4060 C.3   226  ILE226      0.0019
    184  CG2      107.0410  -24.0460   23.1650 C.3   226  ILE226      0.0019
    185  CD1      110.0030  -23.3310   23.1660 C.3   226  ILE226      0.0001
@<TRIPOS>BOND
     1   162   163    1
     2   155   156    1
     3   157   158    2
     4   157   156    1
     5   172   173    2
     6   172   171    1
     7   163   164    1
     8   163   166    1
     9   170   164   am
    10   170   171    1
    11   156   159    1
    12   169   167    1
    13   174   171    1
    14   174   175    1
    15   164   165    2
    16   161   159    1
    17   167   166    1
    18   167   168    1
    19   159   160    1
    20   177   175   am
    21   178   179    1
    22   175   176    2
    23    34    33    2
    24   180   179    1
    25   180   181    2
    26    39    37   am
    27   179   182    1
    28    37    38    2
    29    37    36    1
    30    43    42    2
    31    33    32    1
    32    33    40   am
    33    35    36    1
    34    35    32    1
    35    32    31    1
    36   182   183    1
    37   182   184    1
    38    42    41    1
    39    41    40    1
    40    41    44    1
    41   183   185    1
    42    45    44    1
    43    45    47    1
    44   150   149    2
    45    46    44    1
    46    21    19   am
    47   149   148    1
    48   153   152    2
    49    19    18    1
    50    19    20    2
    51    25    24    2
    52    18    17    1
    53    16    15    2
    54   148   151    1
    55   148   147    1
    56   152   151    1
    57   152   154   am
    58   137   136    1
    59    30    29    2
    60    23    24    1
    61    23    22    1
    62    23    26    1
    63    24    27   am
    64    15    22   am
    65    15    14    1
    66   136   133    1
    67    29    28    1
    68    64    62   ar
    69    17    14    1
    70    63    62   ar
    71    14    13    1
    72    62    61    1
    73   115   114    1
    74    27    28    1
    75   116   114    1
    76   133   134    1
    77   133   132    1
    78   135   134    2
    79    12    11    2
    80   114   111    1
    81    13    11   am
    82   132   127   am
    83    54    53   ar
    84    59    58    2
    85    11    10    1
    86    61    60    1
    87   120   119    2
    88    58    57    1
    89    60    57    1
    90   111   110    1
    91   111   112    1
    92   127   126    1
    93   127   128    2
    94    53    52    1
    95    53    55   ar
    96    52    49    1
    97   145   144   ar
    98    86    83    1
    99    57    56    1
   100   126   125    1
   101   126   129    1
   102   119   125   am
   103   119   118    1
   104   117   112   am
   105   117   118    1
   106    10     9    1
   107   112   113    2
   108   146   144   ar
   109    82    83    1
   110   125   131    1
   111   144   143    1
   112     9     3   am
   113     4     3    2
   114    83    84    1
   115     1     2    1
   116   118   121    1
   117     3     2    1
   118   129   130    1
   119    49    48    1
   120    49    50    1
   121   121   122    1
   122     2     5    1
   123    50    51    2
   124   122   123    1
   125   122   124    1
   126   131   130    1
   127   143   142    1
   128    84    85    2
   129    66    65    1
   130    66    67    1
   131     5     6    1
   132     5     7    1
   133   142   139    1
   134    91    92    1
   135    91    89   am
   136    87    88    1
   137    88    89    1
   138    92    93    1
   139    89    90    2
   140     6     8    1
   141   103   104    1
   142   103   105    1
   143   103   100    1
   144   107   106    1
   145   107   108    1
   146   106   101   am
   147    67    69   am
   148    67    68    2
   149    69    70    1
   150    75    74    1
   151    75    76    1
   152    78    79    1
   153    78    76   am
   154   139   138    1
   155   139   140    1
   156    74    71   am
   157    93    95   am
   158    93    94    2
   159    79    80    1
   160    76    77    2
   161    95    96    1
   162    99   100    1
   163    99    97   am
   164   100   101    1
   165   101   102    2
   166   108   109    2
   167   140   141    2
   168    70    71    1
   169    70    73    1
   170    71    72    2
   171    96    97    1
   172    97    98    2
   173    80    81    2
