@<TRIPOS>MOLECULE
tmp/2btqA00.pdb
 172 158 0 0 0
SMALL
GASTEIGER

@<TRIPOS>ATOM
      1  N         56.4690  -18.8930  -23.6980 N.3    11  GLY11      -0.1210
      2  CA        57.6670  -18.0710  -23.7270 C.3    11  GLY11       0.1956
      3  C         58.8260  -18.5730  -24.5570 C.2    11  GLY11       0.2612
      4  O         58.6800  -19.5130  -25.3280 O.2    11  GLY11      -0.2717
      5  N         59.9830  -17.9400  -24.3910 N.am   12  GLN12      -0.1965
      6  CA        61.1750  -18.3080  -25.1440 C.3    12  GLN12       0.1733
      7  C         61.9330  -19.4210  -24.4540 C.2    12  GLN12       0.2616
      8  O         62.0850  -20.5090  -25.0050 O.2    12  GLN12      -0.2715
      9  CB        62.0850  -17.0890  -25.3170 C.3    12  GLN12       0.0408
     10  CG        63.4000  -17.3790  -26.0260 C.3    12  GLN12       0.0908
     11  CD        64.3480  -16.1800  -26.0490 C.2    12  GLN12       0.2608
     12  OE1       64.8130  -15.7170  -25.0040 O.2    12  GLN12      -0.2717
     13  NE2       64.6400  -15.6770  -27.2480 N.am   12  GLN12      -0.0878
     14  N         62.4140  -19.1420  -23.2480 N.am   13  ALA13      -0.1963
     15  CA        63.1590  -20.1220  -22.4640 C.3    13  ALA13       0.1728
     16  C         62.3320  -21.3840  -22.3400 C.2    13  ALA13       0.2616
     17  O         62.8170  -22.4890  -22.5810 O.2    13  ALA13      -0.2715
     18  CB        63.4350  -19.5740  -21.0980 C.3    13  ALA13       0.0334
     19  N         61.0730  -21.2050  -21.9550 N.am   14  GLY14      -0.1955
     20  CA        60.1870  -22.3360  -21.7950 C.3    14  GLY14       0.1869
     21  C         60.2280  -23.2030  -23.0300 C.2    14  GLY14       0.2309
     22  O         60.4610  -24.4020  -22.9500 O.2    14  GLY14      -0.2863
     23  N         62.4450  -23.2760  -25.4300 N.3    16  GLN16      -0.1231
     24  CA        63.7350  -23.8320  -25.7780 C.3    16  GLN16       0.1698
     25  C         63.9740  -25.0680  -24.9190 C.2    16  GLN16       0.2592
     26  O         64.4570  -26.0880  -25.4100 O.2    16  GLN16      -0.2718
     27  CB        64.8280  -22.7950  -25.5730 C.3    16  GLN16       0.0381
     28  CG        64.5870  -21.5510  -26.3680 C.3    16  GLN16       0.0905
     29  CD        65.8070  -20.6790  -26.4290 C.2    16  GLN16       0.2608
     30  OE1       66.3260  -20.2530  -25.3980 O.2    16  GLN16      -0.2717
     31  NE2       66.2810  -20.4030  -27.6430 N.am   16  GLN16      -0.0878
     32  N         63.6240  -24.9740  -23.6400 N.am   17  ILE17      -0.1980
     33  CA        63.7690  -26.0950  -22.7220 C.3    17  ILE17       0.1595
     34  C         62.8560  -27.2150  -23.2280 C.2    17  ILE17       0.2287
     35  O         63.2640  -28.3730  -23.3290 O.2    17  ILE17      -0.2864
     36  CB        63.3270  -25.6950  -21.2990 C.3    17  ILE17       0.0276
     37  CG1       64.2970  -24.6580  -20.7340 C.3    17  ILE17       0.0022
     38  CG2       63.2190  -26.9270  -20.4020 C.3    17  ILE17       0.0022
     39  CD1       63.8620  -24.0670  -19.3990 C.3    17  ILE17       0.0001
     40  N         53.9400  -18.6510  -27.7540 N.3    71  ASP71      -0.1239
     41  CA        54.9120  -17.5700  -27.6220 C.3    71  ASP71       0.1674
     42  C         54.4930  -16.3860  -28.4660 C.2    71  ASP71       0.2266
     43  O         54.0940  -16.5630  -29.6090 O.2    71  ASP71      -0.2867
     44  CB        56.2950  -18.0380  -28.0690 C.3    71  ASP71       0.1410
     45  CG        57.3800  -17.0300  -27.7460 C.2    71  ASP71       0.3668
     46  OD1       58.5290  -17.2180  -28.2250 O.co2  71  ASP71      -0.2456
     47  OD2       57.0760  -16.0590  -27.0060 O.co2  71  ASP71      -0.2456
     48  N         56.3160   -9.3810  -26.3280 N.3   100  ALA100     -0.1245
     49  CA        55.7690   -8.8020  -25.1010 C.3   100  ALA100      0.1562
     50  C         56.6640   -7.7480  -24.4680 C.2   100  ALA100      0.2260
     51  O         56.3310   -7.1950  -23.4190 O.2   100  ALA100     -0.2867
     52  CB        55.4830   -9.8990  -24.0940 C.3   100  ALA100      0.0290
     53  N         59.3650   -7.8550  -22.7070 N.3   102  GLY102     -0.1225
     54  CA        59.6790   -8.1060  -21.3100 C.3   102  GLY102      0.1811
     55  C         58.6340   -7.5040  -20.3890 C.2   102  GLY102      0.2280
     56  O         58.9580   -7.0080  -19.3070 O.2   102  GLY102     -0.2866
     57  N         59.6070  -19.4480  -18.2200 N.3   141  ALA141     -0.1245
     58  CA        60.5540  -18.6260  -17.4810 C.3   141  ALA141      0.1562
     59  C         59.7820  -17.4090  -16.9320 C.2   141  ALA141      0.2260
     60  O         59.3760  -16.4920  -17.6470 O.2   141  ALA141     -0.2867
     61  CB        61.6970  -18.2010  -18.3790 C.3   141  ALA141      0.0290
     62  N         60.7300  -14.9930  -15.5070 N.3   143  GLY143     -0.1210
     63  CA        61.4500  -13.7240  -15.5540 C.3   143  GLY143      0.1956
     64  C         61.1650  -12.6950  -16.6480 C.2   143  GLY143      0.2612
     65  O         61.4150  -11.4990  -16.4520 O.2   143  GLY143     -0.2717
     66  N         60.6520  -13.1400  -17.7930 N.am  144  GLY144     -0.1942
     67  CA        60.3810  -12.2270  -18.8890 C.3   144  GLY144      0.2014
     68  C         58.9870  -11.6300  -18.8980 C.2   144  GLY144      0.2639
     69  O         58.4360  -11.3220  -17.8470 O.2   144  GLY144     -0.2714
     70  N         58.4210  -11.4630  -20.0910 N.am  145  GLY145     -0.1939
     71  CA        57.0900  -10.8940  -20.2200 C.3   145  GLY145      0.2014
     72  C         56.0420  -11.9190  -20.6100 C.2   145  GLY145      0.2640
     73  O         54.9990  -12.0070  -19.9580 O.2   145  GLY145     -0.2714
     74  N         56.3100  -12.6960  -21.6630 N.am  146  THR146     -0.1936
     75  CA        55.3770  -13.7220  -22.1340 C.3   146  THR146      0.2028
     76  C         55.1850  -14.8550  -21.1390 C.2   146  THR146      0.2642
     77  O         54.0630  -15.1530  -20.7270 O.2   146  THR146     -0.2714
     78  CB        55.8570  -14.3620  -23.4020 C.3   146  THR146      0.1808
     79  OG1       56.0960  -13.3540  -24.3790 O.3   146  THR146     -0.2208
     80  CG2       54.8180  -15.3070  -23.9210 C.3   146  THR146      0.0379
     81  N         56.2920  -15.4930  -20.7780 N.am  147  GLY147     -0.1954
     82  CA        56.2550  -16.5930  -19.8380 C.3   147  GLY147      0.1869
     83  C         55.6500  -16.1790  -18.5180 C.2   147  GLY147      0.2309
     84  O         54.8740  -16.9270  -17.9140 O.2   147  GLY147     -0.2863
     85  N         61.3620  -21.0260  -14.3990 N.3   172  VAL172     -0.1245
     86  CA        62.7830  -20.7150  -14.4040 C.3   172  VAL172      0.1561
     87  C         62.9850  -19.3110  -13.8710 C.2   172  VAL172      0.2260
     88  O         62.4980  -18.3360  -14.4500 O.2   172  VAL172     -0.2867
     89  CB        63.4040  -20.7570  -15.8190 C.3   172  VAL172      0.0252
     90  CG1       64.9190  -20.6070  -15.7180 C.3   172  VAL172      0.0019
     91  CG2       63.0510  -22.0450  -16.5170 C.3   172  VAL172      0.0019
     92  N         65.1990  -15.9650  -13.0330 N.3   174  PRO174     -0.2116
     93  CA        66.2690  -15.1940  -13.6770 C.3   174  PRO174      0.1372
     94  C         67.4610  -14.9210  -12.7570 C.2   174  PRO174      0.2244
     95  O         67.3280  -14.9480  -11.5280 O.2   174  PRO174     -0.2868
     96  CB        65.5550  -13.9140  -14.0810 C.3   174  PRO174      0.0268
     97  CG        64.5700  -13.7340  -12.9720 C.3   174  PRO174      0.0207
     98  CD        64.0190  -15.1100  -12.7930 C.3   174  PRO174      0.0892
     99  N         73.0070  -13.6560  -16.4910 N.3   178  VAL178     -0.1231
    100  CA        72.2490  -14.0670  -17.6710 C.3   178  VAL178      0.1692
    101  C         70.9900  -13.2090  -17.8780 C.2   178  VAL178      0.2593
    102  O         70.2150  -13.4480  -18.8120 O.2   178  VAL178     -0.2718
    103  CB        71.8320  -15.5720  -17.5740 C.3   178  VAL178      0.0266
    104  CG1       70.6620  -15.7350  -16.6180 C.3   178  VAL178      0.0020
    105  CG2       71.4840  -16.1170  -18.9470 C.3   178  VAL178      0.0020
    106  N         70.8000  -12.2060  -17.0190 N.am  179  SER179     -0.1938
    107  CA        69.6250  -11.3330  -17.1010 C.3   179  SER179      0.2055
    108  C         69.4390  -10.7410  -18.4900 C.2   179  SER179      0.2644
    109  O         70.3820  -10.6580  -19.2850 O.2   179  SER179     -0.2714
    110  CB        69.6990  -10.1960  -16.0670 C.3   179  SER179      0.2130
    111  OG        70.6080   -9.1810  -16.4640 O.3   179  SER179     -0.2179
    112  N         68.2100  -10.3230  -18.7670 N.am  180  SER180     -0.1935
    113  CA        67.8850   -9.7610  -20.0640 C.3   180  SER180      0.2055
    114  C         67.0190   -8.5100  -19.9640 C.2   180  SER180      0.2642
    115  O         66.8250   -7.8100  -20.9610 O.2   180  SER180     -0.2714
    116  CB        67.1680  -10.8130  -20.9180 C.3   180  SER180      0.2130
    117  OG        67.9290  -12.0090  -21.0140 O.3   180  SER180     -0.2179
    118  N         66.4930   -8.2300  -18.7730 N.am  181  VAL181     -0.1977
    119  CA        65.6450   -7.0570  -18.5790 C.3   181  VAL181      0.1596
    120  C         65.7610   -6.5890  -17.1440 C.2   181  VAL181      0.2287
    121  O         65.6010   -7.3780  -16.2290 O.2   181  VAL181     -0.2864
    122  CB        64.1650   -7.3790  -18.8480 C.3   181  VAL181      0.0276
    123  CG1       63.3480   -6.1090  -18.7950 C.3   181  VAL181      0.0022
    124  CG2       64.0040   -8.0530  -20.1940 C.3   181  VAL181      0.0022
    125  N         63.2180   -7.8790  -14.4340 N.3   184  GLU184     -0.1245
    126  CA        62.9880   -9.2820  -14.1310 C.3   184  GLU184      0.1567
    127  C         62.2820   -9.4580  -12.7760 C.2   184  GLU184      0.2260
    128  O         61.3670  -10.2710  -12.6550 O.2   184  GLU184     -0.2867
    129  CB        64.3150  -10.0670  -14.1870 C.3   184  GLU184      0.0388
    130  CG        65.4350   -9.6320  -13.2130 C.3   184  GLU184      0.1160
    131  CD        65.3190  -10.2320  -11.7920 C.2   184  GLU184      0.3649
    132  OE1       65.2480  -11.4730  -11.6540 O.co2 184  GLU184     -0.2457
    133  OE2       65.3160   -9.4670  -10.8020 O.co2 184  GLU184     -0.2457
    134  N         68.1770  -19.9620  -12.2040 N.3   207  ASN207     -0.1240
    135  CA        69.2740  -19.8610  -13.1500 C.3   207  ASN207      0.1653
    136  C         70.6470  -19.5730  -12.5630 C.2   207  ASN207      0.2266
    137  O         71.6660  -19.9840  -13.1240 O.2   207  ASN207     -0.2867
    138  CB        68.9480  -18.8160  -14.1990 C.3   207  ASN207      0.1155
    139  CG        68.4680  -19.4340  -15.4770 C.2   207  ASN207      0.2627
    140  OD1       68.0770  -18.7420  -16.4110 O.2   207  ASN207     -0.2716
    141  ND2       68.5010  -20.7560  -15.5320 N.am  207  ASN207     -0.0877
    142  N         72.9580  -20.0380  -22.1700 N.3   225  VAL225     -0.1245
    143  CA        71.6350  -20.4050  -21.6830 C.3   225  VAL225      0.1561
    144  C         71.3100  -21.8050  -22.1860 C.2   225  VAL225      0.2260
    145  O         70.4470  -22.4830  -21.6410 O.2   225  VAL225     -0.2867
    146  CB        70.5500  -19.4270  -22.1650 C.3   225  VAL225      0.0252
    147  CG1       70.6400  -18.1350  -21.3820 C.3   225  VAL225      0.0019
    148  CG2       70.7150  -19.1550  -23.6500 C.3   225  VAL225      0.0019
    149  N         72.8330  -24.0540  -19.5560 N.3   228  LEU228     -0.1231
    150  CA        71.9170  -24.0040  -18.4320 C.3   228  LEU228      0.1693
    151  C         70.6650  -24.8130  -18.7090 C.2   228  LEU228      0.2592
    152  O         70.1770  -25.5300  -17.8420 O.2   228  LEU228     -0.2718
    153  CB        71.5020  -22.5670  -18.1360 C.3   228  LEU228      0.0284
    154  CG        72.5050  -21.5860  -17.5500 C.3   228  LEU228      0.0019
    155  CD1       71.7360  -20.4310  -16.9370 C.3   228  LEU228      0.0001
    156  CD2       73.3320  -22.2570  -16.4820 C.3   228  LEU228      0.0001
    157  N         70.1410  -24.6880  -19.9220 N.am  229  ASN229     -0.1974
    158  CA        68.9290  -25.3980  -20.2940 C.3   229  ASN229      0.1688
    159  C         69.0700  -26.9090  -20.3030 C.2   229  ASN229      0.2292
    160  O         68.1250  -27.6240  -19.9570 O.2   229  ASN229     -0.2864
    161  CB        68.4230  -24.8940  -21.6450 C.3   229  ASN229      0.1181
    162  CG        67.4810  -23.7150  -21.4950 C.2   229  ASN229      0.2629
    163  OD1       67.4340  -23.0920  -20.4400 O.2   229  ASN229     -0.2716
    164  ND2       66.7300  -23.4040  -22.5410 N.am  229  ASN229     -0.0877
    165  N         68.2680  -28.3320  -16.9130 N.3   232  ILE232     -0.1245
    166  CA        66.8450  -28.3120  -16.6470 C.3   232  ILE232      0.1561
    167  C         66.1760  -29.5140  -17.2930 C.2   232  ILE232      0.2260
    168  O         65.2600  -30.1060  -16.7230 O.2   232  ILE232     -0.2867
    169  CB        66.1850  -27.0310  -17.1720 C.3   232  ILE232      0.0252
    170  CG1       66.6800  -25.8180  -16.3920 C.3   232  ILE232      0.0019
    171  CG2       64.6790  -27.1320  -17.0040 C.3   232  ILE232      0.0019
    172  CD1       66.1100  -24.5130  -16.8930 C.3   232  ILE232      0.0001
@<TRIPOS>BOND
     1    43    42    2
     2    42    41    1
     3    46    45   ar
     4    44    45    1
     5    44    41    1
     6    40    41    1
     7    45    47   ar
     8    31    29   am
     9    13    11   am
    10    29    28    1
    11    29    30    2
    12    28    27    1
    13    48    49    1
    14    11    10    1
    15    11    12    2
    16    10     9    1
    17    24    27    1
    18    24    23    1
    19    24    25    1
    20    26    25    2
    21     4     3    2
    22     9     6    1
    23     6     7    1
    24     6     5    1
    25    49    50    1
    26    49    52    1
    27     8     7    2
    28    25    32   am
    29     3     5   am
    30     3     2    1
    31    50    51    2
    32     7    14   am
    33    79    78    1
    34    80    78    1
    35     2     1    1
    36   148   146    1
    37    32    33    1
    38    78    75    1
    39    35    34    2
    40    14    15    1
    41    34    33    1
    42    21    22    2
    43    21    20    1
    44    33    36    1
    45    53    54    1
    46    17    16    2
    47   164   162   am
    48    15    16    1
    49    15    18    1
    50    16    19   am
    51   144   143    1
    52   144   145    2
    53   142   143    1
    54   146   143    1
    55   146   147    1
    56    75    74    1
    57    75    76    1
    58    19    20    1
    59    74    72   am
    60   161   162    1
    61   161   158    1
    62   162   163    2
    63    54    55    1
    64    36    37    1
    65    36    38    1
    66    76    81   am
    67    76    77    2
    68   117   116    1
    69   115   114    2
    70   116   113    1
    71    81    82    1
    72    37    39    1
    73    72    71    1
    74    72    73    2
    75    55    56    2
    76   159   158    1
    77   159   160    2
    78   158   157    1
    79    71    70    1
    80   124   122    1
    81    70    68   am
    82   113   114    1
    83   113   112    1
    84   114   118   am
    85   157   151   am
    86    82    83    1
    87   149   150    1
    88   109   108    2
    89   105   103    1
    90    68    67    1
    91    68    69    2
    92    67    66    1
    93   122   123    1
    94   122   119    1
    95   102   101    2
    96   118   119    1
    97   112   108   am
    98   151   150    1
    99   151   152    2
   100   119   120    1
   101    83    84    2
   102   108   107    1
   103   150   153    1
   104    61    58    1
   105    57    58    1
   106   153   154    1
   107   101   100    1
   108   101   106   am
   109    66    64   am
   110   100   103    1
   111   100    99    1
   112    60    59    2
   113   103   104    1
   114   154   155    1
   115   154   156    1
   116    58    59    1
   117   167   168    2
   118   167   166    1
   119   169   171    1
   120   169   166    1
   121   169   170    1
   122   120   121    2
   123   107   106    1
   124   107   110    1
   125   165   166    1
   126   172   170    1
   127    64    65    2
   128    64    63    1
   129    91    89    1
   130   111   110    1
   131   140   139    2
   132    89    90    1
   133    89    86    1
   134    63    62    1
   135   141   139   am
   136   139   138    1
   137    88    87    2
   138   125   126    1
   139    86    85    1
   140    86    87    1
   141   138   135    1
   142   129   126    1
   143   129   130    1
   144   126   127    1
   145    96    93    1
   146    96    97    1
   147    93    92    1
   148    93    94    1
   149   130   131    1
   150   135   136    1
   151   135   134    1
   152   137   136    2
   153    92    98    1
   154    97    98    1
   155   127   128    2
   156    94    95    2
   157   131   132   ar
   158   131   133   ar
