@<TRIPOS>MOLECULE
tmp/2btrA00.pdb
 159 152 0 0 0
SMALL
GASTEIGER

@<TRIPOS>ATOM
      1  N         13.8680   56.0730   28.9130 N.3     8  GLU8       -0.1231
      2  CA        13.5870   55.3200   30.1440 C.3     8  GLU8        0.1699
      3  C         14.2150   53.9400   30.1200 C.2     8  GLU8        0.2592
      4  O         14.5210   53.4070   29.0560 O.2     8  GLU8       -0.2718
      5  CB        12.0820   55.1810   30.3590 C.3     8  GLU8        0.0402
      6  CG        11.3480   54.5100   29.2000 C.3     8  GLU8        0.1161
      7  CD         9.8570   54.7410   29.2280 C.2     8  GLU8        0.3649
      8  OE1        9.1110   53.7780   29.5290 O.co2   8  GLU8       -0.2457
      9  OE2        9.4420   55.8920   28.9300 O.co2   8  GLU8       -0.2457
     10  N         14.3870   53.3570   31.3030 N.am    9  LYS9       -0.1966
     11  CA        14.8650   51.9840   31.4190 C.3     9  LYS9        0.1728
     12  C         13.7200   51.0090   31.2160 C.2     9  LYS9        0.2616
     13  O         12.7620   50.9760   31.9890 O.2     9  LYS9       -0.2715
     14  CB        15.5260   51.7390   32.7810 C.3     9  LYS9        0.0311
     15  CG        16.5280   50.5800   32.7750 C.3     9  LYS9        0.0038
     16  CD        17.3250   50.5100   34.0870 C.3     9  LYS9        0.0206
     17  CE        18.4770   51.5150   34.0850 C.3     9  LYS9        0.1093
     18  NZ        18.6480   52.2270   35.3760 N.3     9  LYS9       -0.1314
     19  N         13.8350   50.2370   30.1490 N.am   10  ILE10      -0.1977
     20  CA        12.8990   49.1740   29.7930 C.3    10  ILE10       0.1596
     21  C         13.0190   47.9910   30.7250 C.2    10  ILE10       0.2287
     22  O         12.0200   47.4330   31.1780 O.2    10  ILE10      -0.2864
     23  CB        13.2190   48.6810   28.3570 C.3    10  ILE10       0.0276
     24  CG1       12.7630   49.7160   27.3310 C.3    10  ILE10       0.0022
     25  CG2       12.6360   47.2830   28.1060 C.3    10  ILE10       0.0022
     26  CD1       12.9020   49.2820   25.9040 C.3    10  ILE10       0.0001
     27  N         18.6520   47.5640   29.2970 N.3    18  VAL18      -0.1245
     28  CA        17.9200   47.9610   28.0910 C.3    18  VAL18       0.1561
     29  C         17.2180   49.2830   28.3040 C.2    18  VAL18       0.2260
     30  O         16.4650   49.4340   29.2550 O.2    18  VAL18      -0.2867
     31  CB        16.8710   46.9260   27.7320 C.3    18  VAL18       0.0252
     32  CG1       16.1890   47.3030   26.4060 C.3    18  VAL18       0.0019
     33  CG2       17.4980   45.5550   27.6380 C.3    18  VAL18       0.0019
     34  N         14.8630   52.4240   26.4260 N.3    20  LYS20      -0.1245
     35  CA        14.2180   53.1460   25.3400 C.3    20  LYS20       0.1561
     36  C         15.0330   54.4130   25.1120 C.2    20  LYS20       0.2260
     37  O         15.4050   55.1010   26.0580 O.2    20  LYS20      -0.2867
     38  CB        12.7570   53.4900   25.6780 C.3    20  LYS20       0.0271
     39  CG        11.9700   54.1030   24.4750 C.3    20  LYS20       0.0035
     40  CD        10.5010   54.3610   24.8600 C.3    20  LYS20       0.0206
     41  CE         9.7140   54.8310   23.6570 C.3    20  LYS20       0.1093
     42  NZ         8.2840   55.0850   23.9980 N.3    20  LYS20      -0.1314
     43  N         15.4340   50.8260   20.9770 N.3    31  ALA31      -0.1245
     44  CA        15.8270   50.2100   22.2250 C.3    31  ALA31       0.1562
     45  C         17.3250   50.0040   22.1550 C.2    31  ALA31       0.2260
     46  O         17.8600   49.4150   21.1950 O.2    31  ALA31      -0.2867
     47  CB        15.1300   48.9160   22.4160 C.3    31  ALA31       0.0290
     48  N         20.5620   48.1880   24.0190 N.3    33  LYS33      -0.1245
     49  CA        20.9650   47.1670   24.9700 C.3    33  LYS33       0.1561
     50  C         22.4490   47.3300   25.2230 C.2    33  LYS33       0.2260
     51  O         23.2460   47.1960   24.2960 O.2    33  LYS33      -0.2867
     52  CB        20.6860   45.7660   24.4590 C.3    33  LYS33       0.0271
     53  CG        21.0420   44.6470   25.4610 C.3    33  LYS33       0.0035
     54  CD        20.5550   43.2650   25.0120 C.3    33  LYS33       0.0206
     55  CE        20.8490   42.2040   26.0530 C.3    33  LYS33       0.1093
     56  NZ        20.0960   42.3370   27.3440 N.3    33  LYS33      -0.1314
     57  N         12.8380   41.0240   15.7120 N.3    53  VAL53      -0.1245
     58  CA        13.1090   42.4110   16.0390 C.3    53  VAL53       0.1561
     59  C         14.4150   42.8320   15.3460 C.2    53  VAL53       0.2260
     60  O         15.4640   42.2290   15.5570 O.2    53  VAL53      -0.2867
     61  CB        13.2240   42.6580   17.5880 C.3    53  VAL53       0.0252
     62  CG1       13.5070   44.0840   17.8610 C.3    53  VAL53       0.0019
     63  CG2       11.9510   42.2880   18.2420 C.3    53  VAL53       0.0019
     64  N         18.2980   48.3040   18.6280 N.3    69  PHE69      -0.1227
     65  CA        17.2000   47.5190   18.1000 C.3    69  PHE69       0.1736
     66  C         16.0270   48.3770   17.7060 C.2    69  PHE69       0.2595
     67  O         15.8070   49.4240   18.2610 O.2    69  PHE69      -0.2718
     68  CB        16.6980   46.5500   19.1630 C.3    69  PHE69       0.0547
     69  CG        17.6140   45.4320   19.4530 C.ar   69  PHE69      -0.0202
     70  CD1       18.3840   45.4330   20.6070 C.ar   69  PHE69      -0.0042
     71  CD2       17.6820   44.3450   18.5880 C.ar   69  PHE69      -0.0042
     72  CE1       19.2210   44.3870   20.8820 C.ar   69  PHE69      -0.0003
     73  CE2       18.5110   43.2960   18.8620 C.ar   69  PHE69      -0.0003
     74  CZ        19.2800   43.3070   20.0130 C.ar   69  PHE69      -0.0000
     75  N         15.1970   47.8530   16.8130 N.am   70  GLU70      -0.1965
     76  CA        13.8530   48.3560   16.6220 C.3    70  GLU70       0.1733
     77  C         13.1510   48.3420   17.9730 C.2    70  GLU70       0.2616
     78  O         13.3250   47.3980   18.7240 O.2    70  GLU70      -0.2715
     79  CB        13.1530   47.3900   15.6270 C.3    70  GLU70       0.0429
     80  CG        11.6510   47.4850   15.5250 C.3    70  GLU70       0.1163
     81  CD        11.0600   46.3590   14.6540 C.2    70  GLU70       0.3649
     82  OE1       11.7460   45.3830   14.3080 O.co2  70  GLU70      -0.2457
     83  OE2        9.8720   46.4500   14.3250 O.co2  70  GLU70      -0.2457
     84  N         12.3770   49.3650   18.2830 N.am   71  PHE71      -0.1960
     85  CA        11.5960   49.4130   19.5210 C.3    71  PHE71       0.1771
     86  C         10.1840   48.9330   19.2760 C.2    71  PHE71       0.2619
     87  O          9.5190   49.3720   18.3230 O.2    71  PHE71      -0.2715
     88  CB        11.5820   50.8260   20.0430 C.3    71  PHE71       0.0574
     89  CG        10.7390   51.0400   21.2310 C.ar   71  PHE71      -0.0200
     90  CD1       11.2510   50.7930   22.5030 C.ar   71  PHE71      -0.0042
     91  CD2        9.4410   51.4750   21.1060 C.ar   71  PHE71      -0.0042
     92  CE1       10.4830   51.0040   23.6130 C.ar   71  PHE71      -0.0003
     93  CE2        8.6570   51.6840   22.2270 C.ar   71  PHE71      -0.0003
     94  CZ         9.1730   51.4420   23.4750 C.ar   71  PHE71      -0.0000
     95  N          9.7210   48.0810   20.1740 N.am   72  LEU72      -0.1963
     96  CA         8.3230   47.7220   20.2670 C.3    72  LEU72       0.1728
     97  C          7.7700   48.0630   21.6580 C.2    72  LEU72       0.2616
     98  O          8.4810   48.0120   22.6460 O.2    72  LEU72      -0.2715
     99  CB         8.1260   46.2510   19.9500 C.3    72  LEU72       0.0311
    100  CG         8.1800   45.9280   18.4310 C.3    72  LEU72       0.0022
    101  CD1        9.5950   45.5980   18.0150 C.3    72  LEU72       0.0001
    102  CD2        7.2740   44.7780   18.0630 C.3    72  LEU72       0.0001
    103  N          6.4770   48.3340   21.7130 N.am   73  HIS73      -0.1959
    104  CA         5.9020   48.9620   22.8850 C.3    73  HIS73       0.1787
    105  C          5.5550   47.9830   23.9820 C.2    73  HIS73       0.2620
    106  O          5.3650   48.3840   25.1150 O.2    73  HIS73      -0.2715
    107  CB         4.6830   49.7620   22.4850 C.3    73  HIS73       0.0785
    108  CG         5.0020   51.0840   21.8640 C.ar   73  HIS73       0.0821
    109  ND1        5.2870   51.2230   20.5180 N.ar   73  HIS73      -0.2267
    110  CD2        5.0480   52.3310   22.3930 C.ar   73  HIS73       0.1154
    111  CE1        5.5110   52.4980   20.2500 C.ar   73  HIS73       0.1986
    112  NE2        5.3810   53.1900   21.3700 N.ar   73  HIS73      -0.2212
    113  N          5.4780   46.6920   23.6700 N.am   74  GLN74      -0.1963
    114  CA         5.0590   45.7630   24.7110 C.3    74  GLN74       0.1733
    115  C          5.5820   44.3770   24.4670 C.2    74  GLN74       0.2616
    116  O          5.8090   43.9380   23.3040 O.2    74  GLN74      -0.2715
    117  CB         3.5310   45.7540   24.8280 C.3    74  GLN74       0.0408
    118  CG         3.0620   45.1670   26.1610 C.3    74  GLN74       0.0908
    119  CD         1.6350   45.5430   26.4810 C.2    74  GLN74       0.2608
    120  OE1        0.7640   44.6880   26.4410 O.2    74  GLN74      -0.2717
    121  NE2        1.3840   46.8370   26.7580 N.am   74  GLN74      -0.0878
    122  N          5.7940   43.6620   25.5640 N.am   75  ASP75      -0.1971
    123  CA         6.2350   42.2800   25.4720 C.3    75  ASP75       0.1709
    124  C          5.1070   41.3340   25.8550 C.2    75  ASP75       0.2293
    125  O          4.0670   41.7650   26.4210 O.2    75  ASP75      -0.2864
    126  CB         7.5270   42.0330   26.2500 C.3    75  ASP75       0.1436
    127  CG         7.3610   42.0670   27.7670 C.2    75  ASP75       0.3671
    128  OD1        6.4490   41.4470   28.3190 O.co2  75  ASP75      -0.2456
    129  OD2        8.1850   42.6450   28.4630 O.co2  75  ASP75      -0.2456
    130  N          4.0630   40.9750   29.6430 N.3    78  LYS78      -0.1245
    131  CA         3.1380   42.0430   30.0900 C.3    78  LYS78       0.1561
    132  C          1.7410   41.9080   29.5060 C.2    78  LYS78       0.2260
    133  O          0.7640   42.1010   30.2110 O.2    78  LYS78      -0.2867
    134  CB         3.7230   43.4430   29.7840 C.3    78  LYS78       0.0271
    135  CG         2.7220   44.6070   29.9720 C.3    78  LYS78       0.0035
    136  CD         3.3730   45.8980   30.4280 C.3    78  LYS78       0.0206
    137  CE         2.3820   47.0600   30.4270 C.3    78  LYS78       0.1093
    138  NZ         3.0290   48.3820   30.7900 N.3    78  LYS78      -0.1314
    139  N          7.9440   40.3420   21.4480 N.3   123  LEU123     -0.1245
    140  CA         7.4990   41.7050   21.4680 C.3   123  LEU123      0.1561
    141  C          6.3750   41.9010   20.4740 C.2   123  LEU123      0.2260
    142  O          6.3820   41.3060   19.3780 O.2   123  LEU123     -0.2867
    143  CB         8.6670   42.6210   21.1100 C.3   123  LEU123      0.0270
    144  CG         9.9110   42.5980   21.9920 C.3   123  LEU123      0.0019
    145  CD1       10.7930   43.7280   21.5090 C.3   123  LEU123      0.0001
    146  CD2        9.5750   42.7630   23.4710 C.3   123  LEU123      0.0001
    147  N         12.8010   38.3820   19.9100 N.3   133  ALA133     -0.1231
    148  CA        13.7710   39.3990   20.2930 C.3   133  ALA133      0.1694
    149  C         14.9800   38.7780   20.9530 C.2   133  ALA133      0.2592
    150  O         14.8420   37.7890   21.6240 O.2   133  ALA133     -0.2718
    151  CB        13.1270   40.4120   21.2360 C.3   133  ALA133      0.0304
    152  N         16.1450   39.3800   20.7880 N.am  134  ASP134     -0.1974
    153  CA        17.3800   38.9400   21.4480 C.3   134  ASP134      0.1709
    154  C         17.8500   37.6380   20.8210 C.2   134  ASP134      0.2293
    155  O         18.2990   36.7320   21.4830 O.2   134  ASP134     -0.2864
    156  CB        17.2200   38.8230   22.9760 C.3   134  ASP134      0.1436
    157  CG        17.5330   40.1210   23.6980 C.2   134  ASP134      0.3671
    158  OD1       17.3490   41.2130   23.1070 O.co2 134  ASP134     -0.2456
    159  OD2       17.9390   40.1580   24.8730 O.co2 134  ASP134     -0.2456
@<TRIPOS>BOND
     1    82    81   ar
     2    83    81   ar
     3    81    80    1
     4    59    60    2
     5    59    58    1
     6    80    79    1
     7    79    76    1
     8    57    58    1
     9    58    61    1
    10    76    75    1
    11    76    77    1
    12    75    66   am
    13    61    62    1
    14    61    63    1
    15    66    65    1
    16    66    67    2
    17    77    84   am
    18    77    78    2
    19   101   100    1
    20   102   100    1
    21    65    64    1
    22    65    68    1
    23    84    85    1
    24    87    86    2
    25   100    99    1
    26    71    73   ar
    27    71    69   ar
    28    73    74   ar
    29    68    69    1
    30    86    85    1
    31    86    95   am
    32   142   141    2
    33    69    70   ar
    34    85    88    1
    35   147   148    1
    36    99    96    1
    37    74    72   ar
    38    88    89    1
    39    95    96    1
    40   111   109   ar
    41   111   112   ar
    42    96    97    1
    43   148   149    1
    44   148   151    1
    45   141   140    1
    46   109   108   ar
    47    70    72   ar
    48   152   149   am
    49   152   153    1
    50   154   153    1
    51   154   155    2
    52   149   150    2
    53    43    44    1
    54    91    89   ar
    55    91    93   ar
    56   143   140    1
    57   143   144    1
    58    46    45    2
    59    89    90   ar
    60   112   110   ar
    61   153   156    1
    62   139   140    1
    63   145   144    1
    64    97   103   am
    65    97    98    2
    66   103   104    1
    67   108   110   ar
    68   108   107    1
    69   144   146    1
    70    45    44    1
    71    44    47    1
    72    93    94   ar
    73   107   104    1
    74    90    92   ar
    75   104   105    1
    76   156   157    1
    77   158   157   ar
    78   116   115    2
    79    94    92   ar
    80    41    42    1
    81    41    40    1
    82   113   105   am
    83   113   114    1
    84   157   159   ar
    85   105   106    2
    86    48    49    1
    87    51    50    2
    88    52    49    1
    89    52    53    1
    90   115   114    1
    91   115   122   am
    92    39    40    1
    93    39    38    1
    94   114   117    1
    95   117   118    1
    96    49    50    1
    97    54    53    1
    98    54    55    1
    99    36    35    1
   100    36    37    2
   101    35    38    1
   102    35    34    1
   103   123   122    1
   104   123   124    1
   105   123   126    1
   106   124   125    2
   107    26    24    1
   108    55    56    1
   109   118   119    1
   110   126   127    1
   111    32    31    1
   112   120   119    2
   113   119   121   am
   114    24    23    1
   115    33    31    1
   116    31    28    1
   117   127   128   ar
   118   127   129   ar
   119    28    29    1
   120    28    27    1
   121    25    23    1
   122    29    30    2
   123    23    20    1
   124     1     2    1
   125     9     7   ar
   126     4     3    2
   127     6     7    1
   128     6     5    1
   129     7     8   ar
   130   132   131    1
   131   132   133    2
   132   130   131    1
   133   134   135    1
   134   134   131    1
   135    20    19    1
   136    20    21    1
   137   135   136    1
   138     3     2    1
   139     3    10   am
   140     2     5    1
   141    19    12   am
   142   137   136    1
   143   137   138    1
   144    21    22    2
   145    12    11    1
   146    12    13    2
   147    10    11    1
   148    11    14    1
   149    15    14    1
   150    15    16    1
   151    17    16    1
   152    17    18    1
