@<TRIPOS>MOLECULE
tmp/2btsA00.pdb
 132 126 0 0 0
SMALL
GASTEIGER

@<TRIPOS>ATOM
      1  N         -0.4520   13.0390   33.2130 N.3    10  ILE10      -0.1245
      2  CA         0.5810   12.7390   32.2360 C.3    10  ILE10       0.1561
      3  C          0.4510   13.7380   31.0880 C.2    10  ILE10       0.2260
      4  O          1.3570   14.5420   30.8540 O.2    10  ILE10      -0.2867
      5  CB         0.4860   11.2760   31.7510 C.3    10  ILE10       0.0252
      6  CG1        0.7530   10.3190   32.9160 C.3    10  ILE10       0.0019
      7  CG2        1.4760   11.0210   30.6100 C.3    10  ILE10       0.0019
      8  CD1        0.7600    8.8420   32.5240 C.3    10  ILE10       0.0001
      9  N         -5.0940   11.8980   30.2200 N.3    18  VAL18      -0.1245
     10  CA        -4.4380   10.7120   30.7970 C.3    18  VAL18       0.1561
     11  C         -3.7640   11.0260   32.1450 C.2    18  VAL18       0.2260
     12  O         -3.0750   12.0310   32.2790 O.2    18  VAL18      -0.2867
     13  CB        -3.4080   10.1280   29.8220 C.3    18  VAL18       0.0252
     14  CG1       -2.6930    8.9320   30.4370 C.3    18  VAL18       0.0019
     15  CG2       -4.0760    9.7330   28.4940 C.3    18  VAL18       0.0019
     16  N         -2.2730    3.4060   34.0280 N.3    31  ALA31      -0.1245
     17  CA        -2.6600    4.6490   33.3390 C.3    31  ALA31       0.1562
     18  C         -4.1620    4.6820   33.0730 C.2    31  ALA31       0.2260
     19  O         -4.7570    3.6870   32.6720 O.2    31  ALA31      -0.2867
     20  CB        -1.9040    4.8390   32.0390 C.3    31  ALA31       0.0290
     21  N         -7.3230    6.7170   31.1840 N.3    33  LYS33      -0.1245
     22  CA        -7.7240    7.6700   30.1480 C.3    33  LYS33       0.1561
     23  C         -9.2010    8.0450   30.3550 C.2    33  LYS33       0.2260
     24  O        -10.0780    7.1630   30.3110 O.2    33  LYS33      -0.2867
     25  CB        -7.4890    7.0890   28.7520 C.3    33  LYS33       0.0271
     26  CG        -7.8050    8.0660   27.6320 C.3    33  LYS33       0.0035
     27  CD        -7.1720    7.7020   26.2930 C.3    33  LYS33       0.0206
     28  CE        -7.3870    8.8030   25.2640 C.3    33  LYS33       0.1093
     29  NZ        -7.9320    8.2760   23.9610 N.3    33  LYS33      -0.1314
     30  N          0.2560   -2.2230   24.0400 N.3    55  VAL55      -0.1245
     31  CA        -0.0650   -1.8110   25.4170 C.3    55  VAL55       0.1561
     32  C         -1.3950   -2.4360   25.8630 C.2    55  VAL55       0.2260
     33  O         -2.4260   -2.3020   25.1820 O.2    55  VAL55      -0.2867
     34  CB        -0.1030   -0.2440   25.5670 C.3    55  VAL55       0.0252
     35  CG1       -0.5150    0.1760   26.9680 C.3    55  VAL55       0.0019
     36  CG2        1.2650    0.3470   25.2810 C.3    55  VAL55       0.0019
     37  N         -5.3010    1.1290   31.4870 N.3    71  PHE71      -0.1227
     38  CA        -4.1740    0.5340   30.7510 C.3    71  PHE71       0.1736
     39  C         -2.9820    0.1650   31.6890 C.2    71  PHE71       0.2595
     40  O         -2.7840    0.7760   32.7540 O.2    71  PHE71      -0.2718
     41  CB        -3.6100    1.5340   29.7050 C.3    71  PHE71       0.0547
     42  CG        -4.5260    1.8530   28.5310 C.ar   71  PHE71      -0.0202
     43  CD1       -5.2540    3.0460   28.5010 C.ar   71  PHE71      -0.0042
     44  CD2       -4.5790    1.0230   27.4220 C.ar   71  PHE71      -0.0042
     45  CE1       -6.0720    3.3690   27.4120 C.ar   71  PHE71      -0.0003
     46  CE2       -5.3780    1.3400   26.3140 C.ar   71  PHE71      -0.0003
     47  CZ        -6.1290    2.5160   26.3060 C.ar   71  PHE71      -0.0000
     48  N         -2.1670   -0.8020   31.2570 N.am   72  GLU72      -0.1965
     49  CA        -0.8020   -1.0110   31.8080 C.3    72  GLU72       0.1733
     50  C          0.0510    0.2760   31.6190 C.2    72  GLU72       0.2616
     51  O         -0.0960    0.9610   30.6210 O.2    72  GLU72      -0.2715
     52  CB        -0.1200   -2.2500   31.1530 C.3    72  GLU72       0.0429
     53  CG         0.5700   -1.9670   29.8280 C.3    72  GLU72       0.1163
     54  CD         1.4990   -3.0590   29.2930 C.2    72  GLU72       0.3649
     55  OE1        1.1240   -3.7090   28.3180 O.co2  72  GLU72      -0.2457
     56  OE2        2.6400   -3.2200   29.7820 O.co2  72  GLU72      -0.2457
     57  N          0.9040    0.5930   32.5940 N.am   73  PHE73      -0.1960
     58  CA         1.7600    1.7960   32.6120 C.3    73  PHE73       0.1771
     59  C          3.2010    1.5160   32.1530 C.2    73  PHE73       0.2619
     60  O          3.8270    0.5700   32.6540 O.2    73  PHE73      -0.2715
     61  CB         1.8130    2.3470   34.0380 C.3    73  PHE73       0.0574
     62  CG         2.6650    3.5840   34.1950 C.ar   73  PHE73      -0.0200
     63  CD1        2.1270    4.8540   33.9620 C.ar   73  PHE73      -0.0042
     64  CD2        3.9840    3.4850   34.6010 C.ar   73  PHE73      -0.0042
     65  CE1        2.8920    5.9920   34.1280 C.ar   73  PHE73      -0.0003
     66  CE2        4.7580    4.6110   34.7730 C.ar   73  PHE73      -0.0003
     67  CZ         4.2120    5.8750   34.5350 C.ar   73  PHE73      -0.0000
     68  N          3.6960    2.3210   31.1990 N.am   74  LEU74      -0.1963
     69  CA         5.1100    2.3750   30.8090 C.3    74  LEU74       0.1728
     70  C          5.7040    3.7550   31.1880 C.2    74  LEU74       0.2616
     71  O          4.9550    4.7240   31.3580 O.2    74  LEU74      -0.2715
     72  CB         5.2700    2.0670   29.3100 C.3    74  LEU74       0.0311
     73  CG         5.1270    0.5640   28.9570 C.3    74  LEU74       0.0022
     74  CD1        3.6690    0.1750   28.7370 C.3    74  LEU74       0.0001
     75  CD2        5.9220    0.1510   27.7370 C.3    74  LEU74       0.0001
     76  N          7.0300    3.8670   31.3090 N.am   75  HIS75      -0.1959
     77  CA         7.6260    5.0810   31.9130 C.3    75  HIS75       0.1787
     78  C          7.9460    6.2480   30.9800 C.2    75  HIS75       0.2620
     79  O          8.1380    7.3730   31.4650 O.2    75  HIS75      -0.2715
     80  CB         8.8910    4.7340   32.7210 C.3    75  HIS75       0.0785
     81  CG         8.6080    4.1430   34.0750 C.ar   75  HIS75       0.0821
     82  ND1        8.0340    2.8950   34.2410 N.ar   75  HIS75      -0.2267
     83  CD2        8.8530    4.6140   35.3230 C.ar   75  HIS75       0.1154
     84  CE1        7.9170    2.6390   35.5350 C.ar   75  HIS75       0.1986
     85  NE2        8.4250    3.6570   36.2120 N.ar   75  HIS75      -0.2212
     86  N          7.9670    6.0260   29.6600 N.am   76  GLN76      -0.1963
     87  CA         8.2940    7.1010   28.7000 C.3    76  GLN76       0.1733
     88  C          7.6720    6.8650   27.3040 C.2    76  GLN76       0.2616
     89  O          7.5350    5.7330   26.8850 O.2    76  GLN76      -0.2715
     90  CB         9.8310    7.2240   28.5810 C.3    76  GLN76       0.0408
     91  CG        10.3230    8.5830   28.0490 C.3    76  GLN76       0.0908
     92  CD        11.7990    8.8800   28.3190 C.2    76  GLN76       0.2608
     93  OE1       12.6320    8.7720   27.4070 O.2    76  GLN76      -0.2717
     94  NE2       12.1240    9.2870   29.5610 N.am   76  GLN76      -0.0878
     95  N          7.3430    7.9400   26.5790 N.am   77  ASP77      -0.1971
     96  CA         6.9810    7.8460   25.1410 C.3    77  ASP77       0.1709
     97  C          8.1570    8.2010   24.1820 C.2    77  ASP77       0.2293
     98  O          9.1500    8.8050   24.6000 O.2    77  ASP77      -0.2864
     99  CB         5.6940    8.6340   24.8050 C.3    77  ASP77       0.1436
    100  CG         5.8860   10.1640   24.8120 C.2    77  ASP77       0.3671
    101  OD1        6.9440   10.6590   24.3610 O.co2  77  ASP77      -0.2456
    102  OD2        5.0020   10.9420   25.2230 O.co2  77  ASP77      -0.2456
    103  N          9.4350   12.0790   23.7690 N.3    80  LYS80      -0.1245
    104  CA        10.3580   12.4870   24.8460 C.3    80  LYS80       0.1561
    105  C         11.7840   11.8760   24.7290 C.2    80  LYS80       0.2260
    106  O         12.7770   12.5900   24.9390 O.2    80  LYS80      -0.2867
    107  CB         9.7590   12.1830   26.2340 C.3    80  LYS80       0.0271
    108  CG        10.4840   12.8830   27.3890 C.3    80  LYS80       0.0035
    109  CD         9.5920   12.9950   28.6390 C.3    80  LYS80       0.0206
    110  CE        10.4270   13.1210   29.9040 C.3    80  LYS80       0.1093
    111  NZ         9.6330   12.7990   31.1270 N.3    80  LYS80      -0.1314
    112  N          5.1730    3.6780   23.2260 N.3   125  LEU125     -0.1245
    113  CA         5.7150    3.7100   24.5900 C.3   125  LEU125      0.1561
    114  C          6.8670    2.6870   24.8110 C.2   125  LEU125      0.2260
    115  O          6.7950    1.5480   24.3190 O.2   125  LEU125     -0.2867
    116  CB         4.5760    3.4950   25.6260 C.3   125  LEU125      0.0270
    117  CG         3.2510    4.2720   25.5080 C.3   125  LEU125      0.0019
    118  CD1        2.3390    3.9160   26.6780 C.3   125  LEU125      0.0001
    119  CD2        3.4490    5.7670   25.4600 C.3   125  LEU125      0.0001
    120  N          0.2670    2.0140   21.1720 N.3   135  ALA135     -0.1231
    121  CA        -0.6160    2.4910   22.2550 C.3   135  ALA135      0.1694
    122  C         -1.8440    3.2560   21.7540 C.2   135  ALA135      0.2592
    123  O         -1.7740    3.9590   20.7490 O.2   135  ALA135     -0.2718
    124  CB         0.1760    3.3880   23.2220 C.3   135  ALA135      0.0304
    125  N         -2.9620    3.0650   22.4590 N.am  136  ASP136     -0.1974
    126  CA        -4.1630    3.8880   22.3700 C.3   136  ASP136      0.1709
    127  C         -4.7210    3.9430   20.9570 C.2   136  ASP136      0.2293
    128  O         -4.6790    4.9820   20.3060 O.2   136  ASP136     -0.2864
    129  CB        -3.8340    5.2750   22.9350 C.3   136  ASP136      0.1436
    130  CG        -5.0460    6.1600   23.1190 C.2   136  ASP136      0.3671
    131  OD1       -6.1870    5.6710   23.2840 O.co2 136  ASP136     -0.2456
    132  OD2       -4.9210    7.3930   23.1370 O.co2 136  ASP136     -0.2456
@<TRIPOS>BOND
     1   128   127    2
     2   123   122    2
     3   127   126    1
     4   120   121    1
     5   122   121    1
     6   122   125   am
     7   121   124    1
     8   126   125    1
     9   126   129    1
    10   129   130    1
    11   130   132   ar
    12   130   131   ar
    13   112   113    1
    14   103   104    1
    15    29    28    1
    16    30    31    1
    17    97    98    2
    18    97    96    1
    19   115   114    2
    20   101   100   ar
    21   113   114    1
    22   113   116    1
    23   105   104    1
    24   105   106    2
    25    99   100    1
    26    99    96    1
    27   100   102   ar
    28   104   107    1
    29    96    95    1
    30    33    32    2
    31    28    27    1
    32    36    34    1
    33    31    34    1
    34    31    32    1
    35   119   117    1
    36   117   116    1
    37   117   118    1
    38    34    35    1
    39   107   108    1
    40    27    26    1
    41    47    46   ar
    42    47    45   ar
    43    46    44   ar
    44    95    88   am
    45    89    88    2
    46    88    87    1
    47   108   109    1
    48    93    92    2
    49    45    43   ar
    50    44    42   ar
    51    26    25    1
    52    75    73    1
    53    91    92    1
    54    91    90    1
    55    55    54   ar
    56    92    94   am
    57    15    13    1
    58    43    42   ar
    59    42    41    1
    60    90    87    1
    61   109   110    1
    62    87    86    1
    63    74    73    1
    64    25    22    1
    65    73    72    1
    66    54    56   ar
    67    54    53    1
    68    72    69    1
    69    86    78   am
    70    41    38    1
    71    13    14    1
    72    13    10    1
    73    53    52    1
    74   110   111    1
    75    22    23    1
    76    22    21    1
    77     9    10    1
    78    24    23    2
    79     7     5    1
    80    51    50    2
    81    38    37    1
    82    38    39    1
    83    10    11    1
    84    69    70    1
    85    69    68    1
    86     4     3    2
    87    78    79    2
    88    78    77    1
    89     3     2    1
    90    52    49    1
    91    70    76   am
    92    70    71    2
    93    68    59   am
    94    48    39   am
    95    48    49    1
    96    76    77    1
    97    50    49    1
    98    50    57   am
    99    39    40    2
   100     5     2    1
   101     5     6    1
   102    77    80    1
   103    20    17    1
   104    11    12    2
   105    59    58    1
   106    59    60    2
   107     2     1    1
   108     8     6    1
   109    57    58    1
   110    58    61    1
   111    19    18    2
   112    80    81    1
   113    18    17    1
   114    17    16    1
   115    63    65   ar
   116    63    62   ar
   117    61    62    1
   118    81    82   ar
   119    81    83   ar
   120    65    67   ar
   121    62    64   ar
   122    82    84   ar
   123    67    66   ar
   124    64    66   ar
   125    83    85   ar
   126    84    85   ar
