@<TRIPOS>MOLECULE
tmp/2btyC00.pdb
 114 108 0 0 0
SMALL
GASTEIGER

@<TRIPOS>ATOM
      1  N         24.3660   34.4060   43.3920 N.3    15  TYR15      -0.1241
      2  CA        23.8340   33.5640   42.3190 C.3    15  TYR15       0.1605
      3  C         22.3290   33.7900   42.2270 C.2    15  TYR15       0.2264
      4  O         21.7410   33.7060   41.1540 O.2    15  TYR15      -0.2867
      5  CB        24.1320   32.0990   42.6190 C.3    15  TYR15       0.0534
      6  CG        25.6050   31.8270   42.5800 C.ar   15  TYR15      -0.0201
      7  CD1       26.2350   31.0650   43.5640 C.ar   15  TYR15      -0.0009
      8  CD2       26.3810   32.3630   41.5660 C.ar   15  TYR15      -0.0009
      9  CE1       27.6080   30.8540   43.5280 C.ar   15  TYR15       0.0417
     10  CE2       27.7390   32.1580   41.5220 C.ar   15  TYR15       0.0417
     11  CZ        28.3510   31.4100   42.4980 C.ar   15  TYR15       0.1957
     12  OH        29.7170   31.2500   42.4180 O.3    15  TYR15      -0.2866
     13  N         20.6310   34.5570   38.7470 N.3    19  PHE19      -0.1241
     14  CA        19.8190   33.4720   38.1970 C.3    19  PHE19       0.1605
     15  C         18.3340   33.8140   38.2500 C.2    19  PHE19       0.2264
     16  O         17.4880   33.0790   37.7220 O.2    19  PHE19      -0.2867
     17  CB        20.0860   32.1700   38.9570 C.3    19  PHE19       0.0534
     18  CG        21.4430   31.5740   38.6890 C.ar   19  PHE19      -0.0203
     19  CD1       21.9790   30.6200   39.5460 C.ar   19  PHE19      -0.0042
     20  CD2       22.1780   31.9550   37.5710 C.ar   19  PHE19      -0.0042
     21  CE1       23.2220   30.0630   39.2940 C.ar   19  PHE19      -0.0003
     22  CE2       23.4260   31.4030   37.3110 C.ar   19  PHE19      -0.0003
     23  CZ        23.9460   30.4570   38.1690 C.ar   19  PHE19      -0.0000
     24  N         20.8080   27.0050   31.8210 N.3   196  LYS196     -0.1245
     25  CA        21.4680   25.7600   32.2200 C.3   196  LYS196      0.1561
     26  C         20.7680   24.4690   31.8510 C.2   196  LYS196      0.2260
     27  O         19.5490   24.4020   31.7510 O.2   196  LYS196     -0.2867
     28  CB        21.7010   25.7140   33.7440 C.3   196  LYS196      0.0271
     29  CG        22.6740   26.7340   34.3040 C.3   196  LYS196      0.0035
     30  CD        22.9440   26.4610   35.7910 C.3   196  LYS196      0.0206
     31  CE        23.7640   27.5800   36.4360 C.3   196  LYS196      0.1093
     32  NZ        25.0880   27.7680   35.7990 N.3   196  LYS196     -0.1314
     33  N         36.4290   19.4060   37.8610 N.3   214  SER214     -0.1202
     34  CA        35.4910   20.4710   38.1980 C.3   214  SER214      0.2020
     35  C         34.8800   21.1650   36.9750 C.2   214  SER214      0.2619
     36  O         33.6750   21.0560   36.7120 O.2   214  SER214     -0.2717
     37  CB        36.1910   21.5150   39.0690 C.3   214  SER214      0.2103
     38  OG        35.3930   22.6750   39.2210 O.3   214  SER214     -0.2182
     39  N         35.7280   21.8800   36.2400 N.am  215  THR215     -0.1952
     40  CA        35.3100   22.6240   35.0580 C.3   215  THR215      0.1897
     41  C         36.0540   22.1990   33.8020 C.2   215  THR215      0.2313
     42  O         37.1280   21.6120   33.8700 O.2   215  THR215     -0.2863
     43  CB        35.5510   24.1280   35.2560 C.3   215  THR215      0.1794
     44  OG1       34.7820   24.5860   36.3760 O.3   215  THR215     -0.2208
     45  CG2       35.1610   24.9120   34.0110 C.3   215  THR215      0.0378
     46  N         25.7110   20.9070   33.3800 N.3   253  HIS253     -0.1241
     47  CA        26.1790   20.2970   34.6260 C.3   253  HIS253      0.1621
     48  C         25.8960   18.7920   34.7280 C.2   253  HIS253      0.2264
     49  O         24.7400   18.3620   34.6620 O.2   253  HIS253     -0.2867
     50  CB        25.5360   21.0030   35.8270 C.3   253  HIS253      0.0745
     51  CG        25.9270   22.4400   35.9730 C.ar  253  HIS253      0.0817
     52  ND1       26.9470   22.8540   36.8010 N.ar  253  HIS253     -0.2268
     53  CD2       25.4310   23.5630   35.3940 C.ar  253  HIS253      0.1154
     54  CE1       27.0620   24.1710   36.7290 C.ar  253  HIS253      0.1986
     55  NE2       26.1540   24.6230   35.8830 N.ar  253  HIS253     -0.2212
     56  N         25.2580   22.2680   43.8290 N.3   266  GLU266     -0.1231
     57  CA        25.8770   22.6230   42.5560 C.3   266  GLU266      0.1699
     58  C         25.6020   24.0470   42.0650 C.2   266  GLU266      0.2592
     59  O         26.4510   24.6540   41.4200 O.2   266  GLU266     -0.2718
     60  CB        25.4280   21.6280   41.4790 C.3   266  GLU266      0.0402
     61  CG        25.9580   21.9140   40.0810 C.3   266  GLU266      0.1161
     62  CD        27.4560   21.6940   39.9500 C.2   266  GLU266      0.3649
     63  OE1       27.9450   20.6620   40.4570 O.co2 266  GLU266     -0.2457
     64  OE2       28.1430   22.5330   39.3240 O.co2 266  GLU266     -0.2457
     65  N         24.4230   24.5770   42.3790 N.am  267  ILE267     -0.1980
     66  CA        24.0210   25.9050   41.9190 C.3   267  ILE267      0.1595
     67  C         24.2970   27.1030   42.8290 C.2   267  ILE267      0.2287
     68  O         24.5680   28.2060   42.3480 O.2   267  ILE267     -0.2864
     69  CB        22.5100   25.9160   41.5860 C.3   267  ILE267      0.0276
     70  CG1       22.2140   24.9430   40.4500 C.3   267  ILE267      0.0022
     71  CG2       22.0740   27.3030   41.1790 C.3   267  ILE267      0.0022
     72  CD1       20.7410   24.6600   40.2930 C.3   267  ILE267      0.0001
     73  N         26.6990   27.2230   45.3520 N.3   269  SER269     -0.1202
     74  CA        28.0470   27.2480   45.9060 C.3   269  SER269      0.2020
     75  C         28.9500   27.4620   44.7100 C.2   269  SER269      0.2619
     76  O         28.6360   27.0040   43.6090 O.2   269  SER269     -0.2717
     77  CB        28.3990   25.9240   46.5770 C.3   269  SER269      0.2103
     78  OG        28.8740   24.9880   45.6230 O.3   269  SER269     -0.2182
     79  N         30.0730   28.1340   44.9090 N.am  270  ARG270     -0.1965
     80  CA        30.9610   28.4010   43.7940 C.3   270  ARG270      0.1729
     81  C         31.7770   27.2410   43.2230 C.2   270  ARG270      0.2616
     82  O         32.2530   27.3250   42.0880 O.2   270  ARG270     -0.2715
     83  CB        31.9060   29.5430   44.1430 C.3   270  ARG270      0.0348
     84  CG        32.6750   30.0130   42.9300 C.3   270  ARG270      0.0492
     85  CD        33.5760   31.1900   43.2070 C.3   270  ARG270      0.2205
     86  NE        34.3150   31.5490   41.9940 N.pl3 270  ARG270     -0.0865
     87  CZ        35.2050   30.7620   41.3860 C.cat 270  ARG270      0.5346
     88  NH1       35.8170   31.1820   40.2860 N.pl3 270  ARG270      0.1354
     89  NH2       35.4960   29.5640   41.8800 N.pl3 270  ARG270      0.1354
     90  N         31.9370   26.1620   43.9830 N.am  271  LYS271     -0.1963
     91  CA        32.7260   25.0160   43.5180 C.3   271  LYS271      0.1728
     92  C         31.9090   23.8550   42.9440 C.2   271  LYS271      0.2616
     93  O         32.4540   22.9840   42.2620 O.2   271  LYS271     -0.2715
     94  CB        33.6140   24.4920   44.6540 C.3   271  LYS271      0.0311
     95  CG        34.6240   25.5090   45.1880 C.3   271  LYS271      0.0038
     96  CD        35.5440   24.8970   46.2500 C.3   271  LYS271      0.0206
     97  CE        36.5530   25.9210   46.7650 C.3   271  LYS271      0.1093
     98  NZ        37.4890   25.3440   47.7780 N.3   271  LYS271     -0.1314
     99  N         30.6090   23.8330   43.2180 N.am  272  GLY272     -0.1955
    100  CA        29.7830   22.7570   42.7040 C.3   272  GLY272      0.1869
    101  C         30.2200   21.4190   43.2570 C.2   272  GLY272      0.2309
    102  O         31.2060   21.3300   43.9830 O.2   272  GLY272     -0.2863
    103  N         29.9300   18.6030   41.0190 N.3   274  GLY274     -0.1225
    104  CA        30.1110   17.7740   39.8450 C.3   274  GLY274      0.1811
    105  C         30.8750   18.4940   38.7510 C.2   274  GLY274      0.2280
    106  O         31.5010   19.5300   38.9910 O.2   274  GLY274     -0.2866
    107  N         31.1860   20.7310   35.4050 N.3   276  MET276     -0.1245
    108  CA        30.4740   21.7740   34.6650 C.3   276  MET276      0.1570
    109  C         31.1950   22.0490   33.3670 C.2   276  MET276      0.2261
    110  O         32.4000   22.2940   33.3620 O.2   276  MET276     -0.2867
    111  CB        30.4020   23.0890   35.4500 C.3   276  MET276      0.0387
    112  CG        29.9310   24.2800   34.5930 C.3   276  MET276      0.0595
    113  SD        29.5980   25.8390   35.4780 S.3   276  MET276     -0.1393
    114  CE        30.9940   26.8320   35.0450 C.3   276  MET276      0.0692
@<TRIPOS>BOND
     1    27    26    2
     2    24    25    1
     3    26    25    1
     4    25    28    1
     5   110   109    2
     6   109   108    1
     7    46    47    1
     8    28    29    1
     9    41    42    2
    10    41    40    1
    11    45    43    1
    12    29    30    1
    13   112   111    1
    14   112   113    1
    15    47    48    1
    16    47    50    1
    17    49    48    2
    18   108   107    1
    19   108   111    1
    20   114   113    1
    21    40    43    1
    22    40    39    1
    23    43    44    1
    24    53    55   ar
    25    53    51   ar
    26    30    31    1
    27    32    31    1
    28    50    51    1
    29    55    54   ar
    30    51    52   ar
    31    39    35   am
    32    36    35    2
    33    54    52   ar
    34    35    34    1
    35    22    20   ar
    36    22    23   ar
    37    20    18   ar
    38    16    15    2
    39    33    34    1
    40    23    21   ar
    41    14    15    1
    42    14    13    1
    43    14    17    1
    44    34    37    1
    45    18    17    1
    46    18    19   ar
    47   105   106    2
    48   105   104    1
    49    37    38    1
    50    21    19   ar
    51    64    62   ar
    52   104   103    1
    53    62    61    1
    54    62    63   ar
    55    61    60    1
    56    88    87    1
    57    72    70    1
    58    70    69    1
    59     4     3    2
    60    71    69    1
    61    87    89    1
    62    87    86    2
    63    59    58    2
    64    60    57    1
    65    10     8   ar
    66    10    11   ar
    67     8     6   ar
    68    69    66    1
    69    66    65    1
    70    66    67    1
    71    86    85    1
    72    58    65   am
    73    58    57    1
    74    82    81    2
    75     3     2    1
    76    93    92    2
    77     2     5    1
    78     2     1    1
    79    68    67    2
    80    12    11    1
    81    11     9   ar
    82    57    56    1
    83     6     5    1
    84     6     7   ar
    85   100    99    1
    86   100   101    1
    87    84    85    1
    88    84    83    1
    89    92    99   am
    90    92    91    1
    91    81    80    1
    92    81    90   am
    93   101   102    2
    94    91    90    1
    95    91    94    1
    96     9     7   ar
    97    76    75    2
    98    80    83    1
    99    80    79    1
   100    94    95    1
   101    75    79   am
   102    75    74    1
   103    95    96    1
   104    73    74    1
   105    78    77    1
   106    74    77    1
   107    96    97    1
   108    97    98    1
