@<TRIPOS>MOLECULE
tmp/2btyC01.pdb
 121 113 0 0 0
SMALL
GASTEIGER

@<TRIPOS>ATOM
      1  N         17.3930   17.1280   33.4210 N.3    27  LYS27      -0.1245
      2  CA        17.1350   15.7380   33.0530 C.3    27  LYS27       0.1561
      3  C         17.0990   14.8320   34.2810 C.2    27  LYS27       0.2260
      4  O         18.1200   14.5700   34.9120 O.2    27  LYS27      -0.2867
      5  CB        18.2010   15.2480   32.0620 C.3    27  LYS27       0.0271
      6  CG        18.3960   13.7270   32.0010 C.3    27  LYS27       0.0035
      7  CD        17.0960   12.9760   31.7510 C.3    27  LYS27       0.0206
      8  CE        17.2890   11.4670   31.8740 C.3    27  LYS27       0.1093
      9  NZ        18.2000   10.9230   30.8330 N.3    27  LYS27      -0.1314
     10  N         17.2820   11.6670   35.5190 N.3    29  GLY29      -0.1210
     11  CA        17.7390   10.3360   35.1370 C.3    29  GLY29       0.1956
     12  C         17.3110    9.1810   36.0350 C.2    29  GLY29       0.2612
     13  O         16.4580    9.3390   36.9110 O.2    29  GLY29      -0.2717
     14  N         17.9130    8.0130   35.8140 N.am   30  GLY30      -0.1956
     15  CA        17.5860    6.8330   36.6010 C.3    30  GLY30       0.1869
     16  C         18.1150    6.8320   38.0280 C.2    30  GLY30       0.2309
     17  O         17.4250    6.3910   38.9440 O.2    30  GLY30      -0.2863
     18  N         16.2840    8.8920   40.6860 N.3    33  MET33      -0.1245
     19  CA        14.8850    8.4630   40.6270 C.3    33  MET33       0.1570
     20  C         14.7450    7.1840   41.4500 C.2    33  MET33       0.2261
     21  O         13.6350    6.7060   41.6560 O.2    33  MET33      -0.2867
     22  CB        14.4500    8.2240   39.1560 C.3    33  MET33       0.0387
     23  CG        12.9650    8.1550   38.8470 C.3    33  MET33       0.0595
     24  SD        12.6290    7.6390   37.1390 S.3    33  MET33      -0.1393
     25  CE        12.9030    9.1720   36.2500 C.3    33  MET33       0.0692
     26  N         13.1450   10.3820   31.9950 N.3    61  GLY61      -0.1210
     27  CA        13.3860    9.2580   31.1200 C.3    61  GLY61       0.1956
     28  C         12.4630    8.1140   31.4630 C.2    61  GLY61       0.2612
     29  O         11.4080    8.3390   32.0520 O.2    61  GLY61      -0.2717
     30  N         12.8490    6.8920   31.1030 N.am   62  GLY62      -0.1942
     31  CA        12.0180    5.7310   31.3920 C.3    62  GLY62       0.2014
     32  C         12.8800    4.5470   31.7790 C.2    62  GLY62       0.2639
     33  O         13.5660    4.5990   32.7990 O.2    62  GLY62      -0.2714
     34  N         12.8510    3.4830   30.9780 N.am   63  GLY63      -0.1940
     35  CA        13.6730    2.3240   31.2710 C.3    63  GLY63       0.1998
     36  C         12.9670    1.1900   31.9850 C.2    63  GLY63       0.2480
     37  O         12.2020    0.4520   31.3620 O.2    63  GLY63      -0.2729
     38  N         13.2070    1.0220   33.2960 N.am   64  PRO64      -0.2726
     39  CA        12.6090   -0.0300   34.1280 C.3    64  PRO64       0.1402
     40  C         11.1160   -0.2990   33.9080 C.2    64  PRO64       0.2269
     41  O         10.7360   -1.3640   33.4100 O.2    64  PRO64      -0.2865
     42  CB        12.9080    0.4520   35.5470 C.3    64  PRO64       0.0296
     43  CG        14.2580    1.0870   35.3880 C.3    64  PRO64       0.0237
     44  CD        14.1020    1.8780   34.0990 C.3    64  PRO64       0.0939
     45  N          9.1250    0.4700   31.7490 N.3    66  ILE66      -0.1245
     46  CA         8.8250    0.0400   30.3940 C.3    66  ILE66       0.1561
     47  C          9.1240   -1.4410   30.2030 C.2    66  ILE66       0.2260
     48  O          8.2290   -2.2290   29.8850 O.2    66  ILE66      -0.2867
     49  CB         9.6440    0.8250   29.3680 C.3    66  ILE66       0.0252
     50  CG1        9.3670    2.3220   29.5400 C.3    66  ILE66       0.0019
     51  CG2        9.3210    0.3240   27.9610 C.3    66  ILE66       0.0019
     52  CD1        9.5690    3.1460   28.2940 C.3    66  ILE66       0.0001
     53  N          5.8620    6.2860   29.5510 N.3    98  LEU98      -0.1245
     54  CA         6.5350    7.5640   29.6640 C.3    98  LEU98       0.1561
     55  C          5.5590    8.6860   29.9990 C.2    98  LEU98       0.2260
     56  O          5.8130    9.5130   30.8730 O.2    98  LEU98      -0.2867
     57  CB         7.2340    7.9000   28.3560 C.3    98  LEU98       0.0270
     58  CG         8.5530    7.2110   28.0360 C.3    98  LEU98       0.0019
     59  CD1        9.0190    7.6450   26.6580 C.3    98  LEU98       0.0001
     60  CD2        9.6030    7.5670   29.0870 C.3    98  LEU98       0.0001
     61  N          9.9340   12.5980   26.8300 N.3   167  PRO167     -0.2116
     62  CA        10.7300   12.4760   25.6010 C.3   167  PRO167      0.1372
     63  C         10.0840   11.9730   24.3030 C.2   167  PRO167      0.2244
     64  O         10.7940   11.7700   23.3200 O.2   167  PRO167     -0.2868
     65  CB        11.8800   11.5590   26.0270 C.3   167  PRO167      0.0268
     66  CG        11.9950   11.7770   27.4710 C.3   167  PRO167      0.0207
     67  CD        10.5480   11.7940   27.8990 C.3   167  PRO167      0.0892
     68  N         10.0360    7.4810   19.6160 N.3   178  ASN178     -0.1225
     69  CA        10.6820    7.4780   20.9140 C.3   178  ASN178      0.1785
     70  C         11.9600    8.2900   20.7300 C.2   178  ASN178      0.2597
     71  O         12.5860    8.2450   19.6700 O.2   178  ASN178     -0.2718
     72  CB        11.0080    6.0470   21.3480 C.3   178  ASN178      0.1169
     73  CG        11.4160    5.9580   22.8110 C.2   178  ASN178      0.2627
     74  OD1       10.6210    6.2460   23.7100 O.2   178  ASN178     -0.2716
     75  ND2       12.6590    5.5600   23.0570 N.am  178  ASN178     -0.0877
     76  N         12.3400    9.0500   21.7500 N.am  179  ILE179     -0.1966
     77  CA        13.5410    9.8790   21.6670 C.3   179  ILE179      0.1727
     78  C         14.3480    9.8210   22.9630 C.2   179  ILE179      0.2616
     79  O         13.8060    9.5720   24.0460 O.2   179  ILE179     -0.2715
     80  CB        13.1710   11.3560   21.3460 C.3   179  ILE179      0.0290
     81  CG1       12.4630   11.4250   19.9920 C.3   179  ILE179      0.0022
     82  CG2       14.4180   12.2310   21.3290 C.3   179  ILE179      0.0023
     83  CD1       11.9340   12.7970   19.6480 C.3   179  ILE179      0.0001
     84  N         15.6500   10.0500   22.8380 N.am  180  ASN180     -0.1958
     85  CA        16.5400   10.0170   23.9840 C.3   180  ASN180      0.1819
     86  C         16.3680   11.2560   24.8510 C.2   180  ASN180      0.2621
     87  O         16.6810   12.3730   24.4270 O.2   180  ASN180     -0.2715
     88  CB        17.9960    9.8930   23.5180 C.3   180  ASN180      0.1195
     89  CG        18.9570    9.6140   24.6670 C.2   180  ASN180      0.2630
     90  OD1       19.2730   10.5030   25.4580 O.2   180  ASN180     -0.2716
     91  ND2       19.4140    8.3700   24.7700 N.am  180  ASN180     -0.0877
     92  N         15.8730   11.0360   26.0670 N.am  181  ALA181     -0.1963
     93  CA        15.6250   12.0940   27.0390 C.3   181  ALA181      0.1728
     94  C         16.7440   13.1250   27.1180 C.2   181  ALA181      0.2616
     95  O         16.4920   14.3270   27.0320 O.2   181  ALA181     -0.2715
     96  CB        15.3840   11.4820   28.4160 C.3   181  ALA181      0.0334
     97  N         17.9770   12.6650   27.2900 N.am  182  ASP182     -0.1971
     98  CA        19.1110   13.5830   27.3730 C.3   182  ASP182      0.1709
     99  C         19.1660   14.5030   26.1680 C.2   182  ASP182      0.2293
    100  O         19.3370   15.7180   26.3010 O.2   182  ASP182     -0.2864
    101  CB        20.4240   12.8080   27.4690 C.3   182  ASP182      0.1436
    102  CG        20.6570   12.2380   28.8510 C.2   182  ASP182      0.3671
    103  OD1       21.5600   11.3840   29.0060 O.co2 182  ASP182     -0.2456
    104  OD2       19.9320   12.6540   29.7800 O.co2 182  ASP182     -0.2456
    105  N         24.6760    8.6610   37.1890 N.3   202  ASP202     -0.1239
    106  CA        24.9940    7.5550   38.0640 C.3   202  ASP202      0.1674
    107  C         26.4270    7.6540   38.6200 C.2   202  ASP202      0.2266
    108  O         27.0340    6.6330   38.9450 O.2   202  ASP202     -0.2867
    109  CB        24.8510    6.3610   37.1450 C.3   202  ASP202      0.1410
    110  CG        24.9150    6.7960   35.6640 C.2   202  ASP202      0.3668
    111  OD1       25.9840    7.2750   35.2140 O.co2 202  ASP202     -0.2456
    112  OD2       23.8910    6.7060   34.9550 O.co2 202  ASP202     -0.2456
    113  N         26.3860   11.1870   27.1850 N.3   237  LYS237     -0.1245
    114  CA        26.0310   12.3730   27.9640 C.3   237  LYS237      0.1561
    115  C         26.9510   13.5640   27.6880 C.2   237  LYS237      0.2260
    116  O         26.4960   14.6180   27.2450 O.2   237  LYS237     -0.2867
    117  CB        26.0370   12.0360   29.4610 C.3   237  LYS237      0.0271
    118  CG        24.9270   11.0850   29.8800 C.3   237  LYS237      0.0035
    119  CD        25.1290   10.5890   31.2950 C.3   237  LYS237      0.0206
    120  CE        24.0480    9.5910   31.6800 C.3   237  LYS237      0.1093
    121  NZ        22.6920   10.1840   31.5490 N.3   237  LYS237     -0.1314
@<TRIPOS>BOND
     1    68    69    1
     2    83    81    1
     3    71    70    2
     4    81    80    1
     5    70    69    1
     6    70    76   am
     7    69    72    1
     8    82    80    1
     9    80    77    1
    10    72    73    1
    11    77    76    1
    12    77    78    1
    13    73    75   am
    14    73    74    2
    15    84    78   am
    16    84    85    1
    17    78    79    2
    18    64    63    2
    19    88    85    1
    20    88    89    1
    21    85    86    1
    22    63    62    1
    23    87    86    2
    24    89    91   am
    25    89    90    2
    26    86    92   am
    27    62    65    1
    28    62    61    1
    29    65    66    1
    30    92    93    1
    31    99   100    2
    32    99    98    1
    33    59    58    1
    34    61    67    1
    35    95    94    2
    36    93    94    1
    37    93    96    1
    38    94    97   am
    39   113   114    1
    40   116   115    2
    41    97    98    1
    42    98   101    1
    43   101   102    1
    44    66    67    1
    45   115   114    1
    46    51    49    1
    47   114   117    1
    48    58    57    1
    49    58    60    1
    50    52    50    1
    51    57    54    1
    52   102   103   ar
    53   102   104   ar
    54    49    50    1
    55    49    46    1
    56   117   118    1
    57    53    54    1
    58    54    55    1
    59   118   119    1
    60    48    47    2
    61    55    56    2
    62    47    46    1
    63    46    45    1
    64     9     8    1
    65    34    35    1
    66    34    32   am
    67    30    31    1
    68    30    28   am
    69    27    28    1
    70    27    26    1
    71    35    36    1
    72   119   120    1
    73    37    36    2
    74    31    32    1
    75    28    29    2
    76   121   120    1
    77     7     8    1
    78     7     6    1
    79    32    33    2
    80    36    38   am
    81     6     5    1
    82     5     2    1
    83     2     1    1
    84     2     3    1
    85    38    44    1
    86    38    39    1
    87    41    40    2
    88    40    39    1
    89    44    43    1
    90    39    42    1
    91     3     4    2
    92   112   110   ar
    93    11    10    1
    94    11    12    1
    95   111   110   ar
    96    43    42    1
    97   110   109    1
    98    14    12   am
    99    14    15    1
   100    12    13    2
   101    25    24    1
   102    15    16    1
   103    24    23    1
   104   109   106    1
   105   105   106    1
   106    16    17    2
   107   106   107    1
   108   107   108    2
   109    23    22    1
   110    22    19    1
   111    19    18    1
   112    19    20    1
   113    20    21    2
