@<TRIPOS>MOLECULE
tmp/2bu2A00.pdb
 170 162 0 0 0
SMALL
GASTEIGER

@<TRIPOS>ATOM
      1  N         44.0610   39.8730   62.5860 N.3   229  GLU229     -0.1231
      2  CA        43.1900   38.9560   63.3150 C.3   229  GLU229      0.1699
      3  C         41.7770   38.9620   62.7290 C.2   229  GLU229      0.2592
      4  O         41.1400   37.9080   62.6010 O.2   229  GLU229     -0.2718
      5  CB        43.1330   39.3100   64.8100 C.3   229  GLU229      0.0402
      6  CG        44.4340   39.0700   65.6000 C.3   229  GLU229      0.1161
      7  CD        44.8960   37.6110   65.5860 C.2   229  GLU229      0.3649
      8  OE1       44.0680   36.7070   65.8590 O.co2 229  GLU229     -0.2457
      9  OE2       46.0970   37.3670   65.3090 O.co2 229  GLU229     -0.2457
     10  N         41.2830   40.1390   62.3540 N.am  230  LEU230     -0.1980
     11  CA        39.9480   40.2080   61.7850 C.3   230  LEU230      0.1596
     12  C         39.9300   39.5510   60.4130 C.2   230  LEU230      0.2287
     13  O         38.9470   38.9030   60.0430 O.2   230  LEU230     -0.2864
     14  CB        39.4690   41.6620   61.7000 C.3   230  LEU230      0.0297
     15  CG        39.2000   42.2930   63.0720 C.3   230  LEU230      0.0022
     16  CD1       38.6650   43.6890   62.9060 C.3   230  LEU230      0.0001
     17  CD2       38.1990   41.4490   63.8240 C.3   230  LEU230      0.0001
     18  N         41.7630   36.9890   59.4310 N.3   232  LYS232     -0.1231
     19  CA        41.8080   35.5330   59.6180 C.3   232  LYS232      0.1693
     20  C         40.4170   34.9770   59.8830 C.2   232  LYS232      0.2592
     21  O         40.0490   33.9210   59.3500 O.2   232  LYS232     -0.2718
     22  CB        42.7380   35.1770   60.7780 C.3   232  LYS232      0.0285
     23  CG        44.2220   35.2200   60.3960 C.3   232  LYS232      0.0035
     24  CD        45.1390   35.4880   61.5950 C.3   232  LYS232      0.0206
     25  CE        45.0250   34.4630   62.6980 C.3   232  LYS232      0.1093
     26  NZ        45.8150   34.9090   63.8860 N.3   232  LYS232     -0.1314
     27  N         39.6460   35.6940   60.7060 N.am  233  ASN233     -0.1960
     28  CA        38.2890   35.2830   61.0430 C.3   233  ASN233      0.1819
     29  C         37.4050   35.2990   59.8050 C.2   233  ASN233      0.2621
     30  O         36.7950   34.2910   59.4540 O.2   233  ASN233     -0.2715
     31  CB        37.6980   36.2040   62.1120 C.3   233  ASN233      0.1195
     32  CG        38.4070   36.0680   63.4440 C.2   233  ASN233      0.2630
     33  OD1       39.0930   35.0680   63.6820 O.2   233  ASN233     -0.2716
     34  ND2       38.2450   37.0610   64.3240 N.am  233  ASN233     -0.0877
     35  N         37.3500   36.4470   59.1430 N.am  234  ALA234     -0.1977
     36  CA        36.5420   36.5980   57.9480 C.3   234  ALA234      0.1597
     37  C         36.8990   35.5480   56.8840 C.2   234  ALA234      0.2287
     38  O         36.0100   34.9860   56.2420 O.2   234  ALA234     -0.2864
     39  CB        36.7090   38.0250   57.3820 C.3   234  ALA234      0.0319
     40  N         38.2840   32.5140   57.3240 N.3   236  ARG236     -0.1231
     41  CA        37.8580   31.2100   57.7980 C.3   236  ARG236      0.1694
     42  C         36.3660   31.0240   57.5470 C.2   236  ARG236      0.2591
     43  O         35.9380   30.0580   56.9080 O.2   236  ARG236     -0.2718
     44  CB        38.1330   31.0990   59.2930 C.3   236  ARG236      0.0321
     45  CG        38.4860   29.7050   59.7320 C.3   236  ARG236      0.0489
     46  CD        37.4440   29.0820   60.6300 C.3   236  ARG236      0.2205
     47  NE        37.6980   29.3480   62.0410 N.pl3 236  ARG236     -0.0865
     48  CZ        37.0380   28.7630   63.0410 C.cat 236  ARG236      0.5346
     49  NH1       36.0870   27.8730   62.7840 N.pl3 236  ARG236      0.1354
     50  NH2       37.3170   29.0800   64.2990 N.pl3 236  ARG236      0.1354
     51  N         35.5810   31.9700   58.0530 N.am  237  ALA237     -0.1980
     52  CA        34.1370   31.9220   57.9200 C.3   237  ALA237      0.1597
     53  C         33.6790   31.9060   56.4690 C.2   237  ALA237      0.2287
     54  O         32.7510   31.1800   56.1230 O.2   237  ALA237     -0.2864
     55  CB        33.5020   33.1110   58.6760 C.3   237  ALA237      0.0319
     56  N         32.1950   40.5630   55.5370 N.3   268  ASP268     -0.1239
     57  CA        32.3080   39.2440   54.9450 C.3   268  ASP268      0.1674
     58  C         30.9430   38.5830   54.7830 C.2   268  ASP268      0.2266
     59  O         29.9380   39.0500   55.3310 O.2   268  ASP268     -0.2867
     60  CB        33.2030   38.3450   55.8010 C.3   268  ASP268      0.1410
     61  CG        32.5830   37.9900   57.1450 C.2   268  ASP268      0.3668
     62  OD1       31.4580   37.4280   57.1800 O.co2 268  ASP268     -0.2456
     63  OD2       33.2430   38.2580   58.1780 O.co2 268  ASP268     -0.2456
     64  N         30.5590   35.1660   55.4360 N.3   270  GLY270     -0.1225
     65  CA        30.9350   33.8790   55.9810 C.3   270  GLY270      0.1811
     66  C         29.8240   33.2200   56.7670 C.2   270  GLY270      0.2280
     67  O         30.0940   32.4440   57.6870 O.2   270  GLY270     -0.2866
     68  N         27.7980   34.5110   58.9100 N.3   272  GLY272     -0.1210
     69  CA        27.3620   35.2420   60.0800 C.3   272  GLY272      0.1956
     70  C         27.3400   34.4100   61.3440 C.2   272  GLY272      0.2611
     71  O         27.7020   33.2260   61.3380 O.2   272  GLY272     -0.2717
     72  N         26.8980   35.0350   62.4310 N.am  273  VAL273     -0.1979
     73  CA        26.8370   34.4100   63.7470 C.3   273  VAL273      0.1595
     74  C         25.5530   34.8380   64.4660 C.2   273  VAL273      0.2287
     75  O         25.1360   35.9810   64.3550 O.2   273  VAL273     -0.2864
     76  CB        28.0430   34.8680   64.5930 C.3   273  VAL273      0.0276
     77  CG1       27.9300   34.3530   66.0170 C.3   273  VAL273      0.0022
     78  CG2       29.3260   34.4040   63.9420 C.3   273  VAL273      0.0022
     79  N         31.8910   35.8490   71.9170 N.3   281  LEU281     -0.1245
     80  CA        33.0920   35.9100   71.0920 C.3   281  LEU281      0.1561
     81  C         34.2220   36.7260   71.6960 C.2   281  LEU281      0.2260
     82  O         35.3820   36.4810   71.3870 O.2   281  LEU281     -0.2867
     83  CB        32.7600   36.4570   69.6980 C.3   281  LEU281      0.0270
     84  CG        31.7770   35.6330   68.8710 C.3   281  LEU281      0.0019
     85  CD1       31.7510   36.1530   67.4530 C.3   281  LEU281      0.0001
     86  CD2       32.1910   34.1780   68.8950 C.3   281  LEU281      0.0001
     87  N         36.0360   31.5690   75.2170 N.3   287  SER287     -0.1217
     88  CA        36.8500   31.3830   74.0190 C.3   287  SER287      0.1889
     89  C         38.1230   30.5740   74.2770 C.2   287  SER287      0.2288
     90  O         39.0520   30.6010   73.4710 O.2   287  SER287     -0.2866
     91  CB        37.2150   32.7400   73.3910 C.3   287  SER287      0.2089
     92  OG        38.1620   33.4500   74.1690 O.3   287  SER287     -0.2183
     93  N         44.3360   28.6140   61.1380 N.3   289  LEU289     -0.1231
     94  CA        44.3710   30.0570   61.3950 C.3   289  LEU289      0.1693
     95  C         44.0060   30.3790   62.8450 C.2   289  LEU289      0.2592
     96  O         44.6160   31.2500   63.4730 O.2   289  LEU289     -0.2718
     97  CB        43.3640   30.7840   60.4920 C.3   289  LEU289      0.0284
     98  CG        43.3950   30.6330   58.9700 C.3   289  LEU289      0.0019
     99  CD1       41.9850   30.7660   58.4270 C.3   289  LEU289      0.0001
    100  CD2       44.3090   31.6770   58.3620 C.3   289  LEU289      0.0001
    101  N         43.0110   29.6480   63.3530 N.am  290  ALA290     -0.1966
    102  CA        42.4290   29.8330   64.6880 C.3   290  ALA290      0.1728
    103  C         42.8160   28.9060   65.8470 C.2   290  ALA290      0.2617
    104  O         42.9840   27.6970   65.6670 O.2   290  ALA290     -0.2715
    105  CB        40.9110   29.8160   64.5470 C.3   290  ALA290      0.0334
    106  N         42.9180   29.4740   67.0510 N.am  291  GLY291     -0.1940
    107  CA        43.2330   28.6550   68.2150 C.3   291  GLY291      0.2014
    108  C         44.1040   29.2240   69.3180 C.2   291  GLY291      0.2639
    109  O         43.8840   28.9380   70.4940 O.2   291  GLY291     -0.2714
    110  N         45.1130   30.0050   68.9600 N.am  292  PHE292     -0.1959
    111  CA        45.9830   30.5560   69.9900 C.3   292  PHE292      0.1774
    112  C         45.3840   31.8560   70.5270 C.2   292  PHE292      0.2659
    113  O         44.7650   31.8940   71.5870 O.2   292  PHE292     -0.2711
    114  CB        47.4020   30.7660   69.4230 C.3   292  PHE292      0.0574
    115  CG        47.4270   31.2790   68.0050 C.ar  292  PHE292     -0.0200
    116  CD1       47.6280   32.6290   67.7430 C.ar  292  PHE292     -0.0042
    117  CD2       47.2280   30.4120   66.9360 C.ar  292  PHE292     -0.0042
    118  CE1       47.6290   33.1050   66.4430 C.ar  292  PHE292     -0.0003
    119  CE2       47.2270   30.8780   65.6330 C.ar  292  PHE292     -0.0003
    120  CZ        47.4280   32.2250   65.3880 C.ar  292  PHE292     -0.0000
    121  N         45.5760   32.9070   69.7550 N.am  293  GLY293     -0.1716
    122  CA        45.0850   34.2330   70.0470 C.2   293  GLY293      0.1480
    123  C         44.5130   34.9100   71.2770 C.2   293  GLY293      0.2820
    124  O         45.2400   35.4080   72.1360 O.2   293  GLY293     -0.2669
    125  N         43.1850   34.9270   71.3170 N.am  294  TYR294     -0.1925
    126  CA        42.4150   35.7110   72.2680 C.3   294  TYR294      0.1774
    127  C         42.3970   36.8740   71.2720 C.2   294  TYR294      0.2620
    128  O         42.6010   38.0320   71.6280 O.2   294  TYR294     -0.2715
    129  CB        43.2150   36.0620   73.5380 C.3   294  TYR294      0.0574
    130  CG        43.2670   34.9170   74.5040 C.ar  294  TYR294     -0.0198
    131  CD1       42.1180   34.1880   74.7620 C.ar  294  TYR294     -0.0009
    132  CD2       44.4610   34.5050   75.0870 C.ar  294  TYR294     -0.0009
    133  CE1       42.1420   33.0720   75.5570 C.ar  294  TYR294      0.0417
    134  CE2       44.4980   33.3790   75.8930 C.ar  294  TYR294      0.0417
    135  CZ        43.3290   32.6650   76.1190 C.ar  294  TYR294      0.1957
    136  OH        43.3130   31.5170   76.8820 O.3   294  TYR294     -0.2866
    137  N         42.2070   36.4890   70.0020 N.am  295  GLY295     -0.1940
    138  CA        42.1790   37.4190   68.8800 C.3   295  GLY295      0.2014
    139  C         41.2490   38.6070   69.0090 C.2   295  GLY295      0.2639
    140  O         41.6950   39.7480   68.9940 O.2   295  GLY295     -0.2714
    141  N         39.9570   38.3460   69.1380 N.am  296  LEU296     -0.1963
    142  CA        39.0200   39.4290   69.2900 C.3   296  LEU296      0.1713
    143  C         39.1990   40.1710   70.6230 C.2   296  LEU296      0.2458
    144  O         39.4860   41.3650   70.6240 O.2   296  LEU296     -0.2730
    145  CB        37.5810   38.9170   69.1300 C.3   296  LEU296      0.0310
    146  CG        37.1590   38.6980   67.6710 C.3   296  LEU296      0.0022
    147  CD1       35.8720   37.8700   67.6310 C.3   296  LEU296      0.0001
    148  CD2       36.9760   40.0570   66.9690 C.3   296  LEU296      0.0001
    149  N         39.0950   39.4690   71.7700 N.am  297  PRO297     -0.2727
    150  CA        39.2650   40.2710   72.9930 C.3   297  PRO297      0.1402
    151  C         40.5260   41.1350   73.0730 C.2   297  PRO297      0.2269
    152  O         40.4880   42.2600   73.5760 O.2   297  PRO297     -0.2865
    153  CB        39.1800   39.2320   74.1180 C.3   297  PRO297      0.0296
    154  CG        39.5910   37.9410   73.4590 C.3   297  PRO297      0.0237
    155  CD        39.0080   38.0240   72.0740 C.3   297  PRO297      0.0939
    156  N         31.5500   44.1510   66.7110 N.3   312  LEU312     -0.1245
    157  CA        31.1240   43.1490   65.7520 C.3   312  LEU312      0.1561
    158  C         29.6020   43.0840   65.6580 C.2   312  LEU312      0.2260
    159  O         28.9210   43.1510   66.6710 O.2   312  LEU312     -0.2867
    160  CB        31.6330   41.7720   66.1760 C.3   312  LEU312      0.0270
    161  CG        32.5450   40.9930   65.2240 C.3   312  LEU312      0.0019
    162  CD1       33.8940   41.6760   65.0840 C.3   312  LEU312      0.0001
    163  CD2       32.7480   39.5980   65.7810 C.3   312  LEU312      0.0001
    164  N         29.2190   38.9480   58.4000 N.3   320  THR320     -0.1218
    165  CA        29.5560   39.7170   59.5810 C.3   320  THR320      0.1862
    166  C         30.3250   40.9900   59.2640 C.2   320  THR320      0.2287
    167  O         31.1240   41.0370   58.3260 O.2   320  THR320     -0.2866
    168  CB        30.4360   38.8870   60.5410 C.3   320  THR320      0.1770
    169  OG1       29.7640   37.6710   60.8820 O.3   320  THR320     -0.2211
    170  CG2       30.7240   39.6750   61.8130 C.3   320  THR320      0.0375
@<TRIPOS>BOND
     1    58    57    1
     2    58    59    2
     3    57    56    1
     4    57    60    1
     5    64    65    1
     6    60    61    1
     7    65    66    1
     8    54    53    2
     9    38    37    2
    10    53    52    1
    11    66    67    2
    12    37    36    1
    13    43    42    2
    14    61    62   ar
    15    61    63   ar
    16    40    41    1
    17    39    36    1
    18    42    41    1
    19    42    51   am
    20    41    44    1
    21    52    51    1
    22    52    55    1
    23    36    35    1
    24   167   166    2
    25   100    98    1
    26   164   165    1
    27    99    98    1
    28    68    69    1
    29    98    97    1
    30    35    29   am
    31   166   165    1
    32    44    45    1
    33    21    20    2
    34    18    19    1
    35    30    29    2
    36   165   168    1
    37    19    20    1
    38    19    22    1
    39    45    46    1
    40    29    28    1
    41    20    27   am
    42    13    12    2
    43    69    70    1
    44    23    22    1
    45    23    24    1
    46    12    11    1
    47    97    94    1
    48   168   169    1
    49   168   170    1
    50    46    47    1
    51    27    28    1
    52    28    31    1
    53    93    94    1
    54    71    70    2
    55    70    72   am
    56    94    95    1
    57    24    25    1
    58    14    11    1
    59    14    15    1
    60    11    10    1
    61    47    48    2
    62    31    32    1
    63    10     3   am
    64    72    73    1
    65     1     2    1
    66     4     3    2
    67    25    26    1
    68     3     2    1
    69    49    48    1
    70    95   101   am
    71    95    96    2
    72    16    15    1
    73    48    50    1
    74    15    17    1
    75     2     5    1
    76   101   102    1
    77    32    33    2
    78    32    34   am
    79    73    74    1
    80    73    76    1
    81    78    76    1
    82    75    74    2
    83   105   102    1
    84    76    77    1
    85   102   103    1
    86     5     6    1
    87   162   161    1
    88   161   163    1
    89   161   160    1
    90     9     7   ar
    91   120   119   ar
    92   120   118   ar
    93     7     6    1
    94     7     8   ar
    95   119   117   ar
    96   158   157    1
    97   158   159    2
    98   104   103    2
    99   157   160    1
   100   157   156    1
   101   103   106   am
   102   118   116   ar
   103   117   115   ar
   104   148   146    1
   105   106   107    1
   106    85    84    1
   107   147   146    1
   108   146   145    1
   109   116   115   ar
   110   115   114    1
   111   107   108    1
   112    84    86    1
   113    84    83    1
   114   138   139    1
   115   138   137    1
   116   110   108   am
   117   110   111    1
   118   140   139    2
   119   139   141   am
   120   145   142    1
   121   141   142    1
   122   142   143    1
   123   108   109    2
   124   114   111    1
   125    83    80    1
   126   121   122    2
   127   121   112    1
   128   111   112    1
   129   137   127   am
   130   122   123    1
   131   112   113    2
   132   143   144    2
   133   143   149   am
   134    80    81    1
   135    80    79    1
   136   127   128    2
   137   127   126    1
   138   123   125   am
   139   123   124    2
   140   125   126    1
   141    82    81    2
   142   149   155    1
   143   149   150    1
   144   155   154    1
   145   126   129    1
   146   150   151    1
   147   150   153    1
   148   151   152    2
   149    91    88    1
   150    91    92    1
   151   154   153    1
   152    90    89    2
   153   129   130    1
   154    88    89    1
   155    88    87    1
   156   130   131   ar
   157   130   132   ar
   158   131   133   ar
   159   132   134   ar
   160   133   135   ar
   161   134   135   ar
   162   135   136    1
