@<TRIPOS>MOLECULE
tmp/2bu3B00.pdb
 124 115 0 0 0
SMALL
GASTEIGER

@<TRIPOS>ATOM
      1  N          7.8490   17.7010   22.0430 N.3    32  GLN32      -0.1245
      2  CA         9.0720   18.3870   21.6780 C.3    32  GLN32       0.1566
      3  C          9.8470   18.7170   22.9480 C.2    32  GLN32       0.2260
      4  O          9.2630   19.1570   23.9400 O.2    32  GLN32      -0.2867
      5  CB         8.7710   19.6330   20.8610 C.3    32  GLN32       0.0367
      6  CG         7.9690   20.7010   21.5750 C.3    32  GLN32       0.0905
      7  CD         7.5680   21.7920   20.6190 C.2    32  GLN32       0.2608
      8  OE1        6.5790   21.6610   19.8950 O.2    32  GLN32      -0.2717
      9  NE2        8.3530   22.8620   20.5760 N.am   32  GLN32      -0.0878
     10  N         11.3020   24.3920   23.2750 N.3    35  GLN35      -0.1231
     11  CA        10.3250   25.2250   22.5800 C.3    35  GLN35       0.1698
     12  C         10.5800   25.4100   21.0870 C.2    35  GLN35       0.2592
     13  O          9.7250   25.9400   20.3840 O.2    35  GLN35      -0.2718
     14  CB        10.2050   26.5800   23.2820 C.3    35  GLN35       0.0381
     15  CG         9.4090   26.4950   24.5830 C.3    35  GLN35       0.0905
     16  CD         9.1370   27.8520   25.2170 C.2    35  GLN35       0.2608
     17  OE1        9.1750   27.9870   26.4420 O.2    35  GLN35      -0.2717
     18  NE2        8.8540   28.8570   24.3910 N.am   35  GLN35      -0.0878
     19  N         11.7420   24.9720   20.6050 N.am   36  ALA36      -0.1980
     20  CA        12.0970   25.1370   19.1880 C.3    36  ALA36       0.1597
     21  C         12.2310   23.8040   18.4350 C.2    36  ALA36       0.2287
     22  O         12.5500   23.8010   17.2420 O.2    36  ALA36      -0.2864
     23  CB        13.3790   25.9540   19.0590 C.3    36  ALA36       0.0319
     24  N         10.0320   21.3990   17.5900 N.3    38  CYS38      -0.1221
     25  CA         8.8580   20.7830   16.9660 C.3    38  CYS38       0.1808
     26  C          9.1970   20.0070   15.7030 C.2    38  CYS38       0.2601
     27  O          8.6560   18.9280   15.4740 O.2    38  CYS38      -0.2717
     28  CB         7.7610   21.8140   16.6860 C.3    38  CYS38       0.0970
     29  SG         8.2340   23.1630   15.5870 S.3    38  CYS38      -0.0800
     30  N         10.0800   20.5530   14.8720 N.am   39  GLY39      -0.1957
     31  CA        10.4810   19.8370   13.6620 C.3    39  GLY39       0.1869
     32  C         11.2110   18.5360   13.9290 C.2    39  GLY39       0.2309
     33  O         11.0040   17.5460   13.2190 O.2    39  GLY39      -0.2863
     34  N         16.1290   28.7400   16.9820 N.3    84  GLN84      -0.1231
     35  CA        15.2210   29.3340   15.9980 C.3    84  GLN84       0.1698
     36  C         14.3860   28.3310   15.1930 C.2    84  GLN84       0.2592
     37  O         13.6590   28.7250   14.2800 O.2    84  GLN84      -0.2718
     38  CB        15.9910   30.2700   15.0520 C.3    84  GLN84       0.0381
     39  CG        17.0090   29.5720   14.1690 C.3    84  GLN84       0.0905
     40  CD        17.6780   30.5140   13.1940 C.2    84  GLN84       0.2608
     41  OE1       18.3050   31.4980   13.5940 O.2    84  GLN84      -0.2717
     42  NE2       17.5660   30.2080   11.9060 N.am   84  GLN84      -0.0878
     43  N         14.4790   27.0460   15.5290 N.am   85  GLY85      -0.1957
     44  CA        13.7370   26.0230   14.8020 C.3    85  GLY85       0.1869
     45  C         14.3090   25.7890   13.4210 C.2    85  GLY85       0.2309
     46  O         15.5060   26.0110   13.1900 O.2    85  GLY85      -0.2863
     47  N         13.3060   25.8520    8.9370 N.3    86  THR86      -0.1218
     48  CA        12.4240   26.2130    7.8310 C.3    86  THR86       0.1862
     49  C         11.9230   24.9570    7.1270 C.2    86  THR86       0.2287
     50  O         12.4450   23.8510    7.3280 O.2    86  THR86      -0.2866
     51  CB        13.1600   27.0450    6.7880 C.3    86  THR86       0.1770
     52  OG1       14.2160   26.2450    6.2400 O.3    86  THR86      -0.2211
     53  CG2       13.7280   28.3150    7.4000 C.3    86  THR86       0.0375
     54  N          3.9570   22.5530    8.0560 N.3   132  ASN132     -0.1240
     55  CA         4.5890   23.7230    8.6570 C.3   132  ASN132      0.1653
     56  C          3.6020   24.8650    8.4680 C.2   132  ASN132      0.2266
     57  O          3.2250   25.1890    7.3380 O.2   132  ASN132     -0.2867
     58  CB         5.9140   23.9780    7.9350 C.3   132  ASN132      0.1155
     59  CG         6.6100   25.2540    8.3650 C.2   132  ASN132      0.2627
     60  OD1        6.5840   25.6710    9.5370 O.2   132  ASN132     -0.2716
     61  ND2        7.2620   25.8830    7.4050 N.am  132  ASN132     -0.0877
     62  N          1.4680   31.1900   18.8480 N.3   142  ARG142     -0.1231
     63  CA         2.9140   31.2750   18.9590 C.3   142  ARG142      0.1694
     64  C          3.7610   30.9550   17.7400 C.2   142  ARG142      0.2593
     65  O          4.6680   30.1340   17.8370 O.2   142  ARG142     -0.2718
     66  CB         3.4390   30.3270   20.0770 C.3   142  ARG142      0.0321
     67  CG         4.8760   30.5040   20.4460 C.3   142  ARG142      0.0489
     68  CD         5.3880   29.2400   21.1300 C.3   142  ARG142      0.2205
     69  NE         5.5220   28.1070   20.1970 N.pl3 142  ARG142     -0.0865
     70  CZ         5.4570   26.8220   20.5580 C.cat 142  ARG142      0.5346
     71  NH1        5.2560   26.4930   21.8330 N.pl3 142  ARG142      0.1354
     72  NH2        5.5920   25.8660   19.6480 N.pl3 142  ARG142      0.1354
     73  N          3.4850   31.6060   16.6110 N.am  143  GLY143     -0.1942
     74  CA         4.4000   31.5710   15.4650 C.3   143  GLY143      0.2014
     75  C          4.3440   30.3070   14.6310 C.2   143  GLY143      0.2639
     76  O          3.3790   29.5540   14.6870 O.2   143  GLY143     -0.2714
     77  N          5.3870   30.1040   13.8330 N.am  144  GLY144     -0.1939
     78  CA         5.4720   28.9570   12.9350 C.3   144  GLY144      0.2014
     79  C          5.6860   27.6610   13.6910 C.2   144  GLY144      0.2639
     80  O          6.5150   27.5830   14.5950 O.2   144  GLY144     -0.2714
     81  N          4.9260   26.6390   13.3090 N.am  145  HIS145     -0.1959
     82  CA         4.9810   25.3370   13.9620 C.3   145  HIS145      0.1787
     83  C          5.1230   24.2410   12.9110 C.2   145  HIS145      0.2620
     84  O          4.8740   24.4630   11.7170 O.2   145  HIS145     -0.2715
     85  CB         3.7080   25.1400   14.8020 C.3   145  HIS145      0.0785
     86  CG         3.7320   23.9260   15.6810 C.ar  145  HIS145      0.0821
     87  ND1        4.7080   23.7130   16.6320 N.ar  145  HIS145     -0.2267
     88  CD2        2.8900   22.8690   15.7630 C.ar  145  HIS145      0.1154
     89  CE1        4.4680   22.5750   17.2590 C.ar  145  HIS145      0.1986
     90  NE2        3.3740   22.0390   16.7480 N.ar  145  HIS145     -0.2212
     91  N          5.5460   23.0660   13.3680 N.am  146  ILE146     -0.1977
     92  CA         5.7120   21.8910   12.5340 C.3   146  ILE146      0.1596
     93  C          5.1250   20.7060   13.2980 C.2   146  ILE146      0.2287
     94  O          5.4070   20.5310   14.4920 O.2   146  ILE146     -0.2864
     95  CB         7.2040   21.5920   12.2400 C.3   146  ILE146      0.0276
     96  CG1        7.8570   22.7640   11.5020 C.3   146  ILE146      0.0022
     97  CG2        7.3470   20.3030   11.4100 C.3   146  ILE146      0.0022
     98  CD1        9.3590   22.6340   11.3740 C.3   146  ILE146      0.0001
     99  N          7.3450   32.7830    5.8840 N.3   185  ASP185     -0.1239
    100  CA         8.2540   32.6140    7.0130 C.3   185  ASP185      0.1674
    101  C          9.3800   33.6340    6.8580 C.2   185  ASP185      0.2266
    102  O         10.1200   33.6000    5.8730 O.2   185  ASP185     -0.2867
    103  CB         8.7860   31.1740    6.9850 C.3   185  ASP185      0.1410
    104  CG         9.8010   30.8630    8.0840 C.2   185  ASP185      0.3668
    105  OD1       10.2130   31.7680    8.8470 O.co2 185  ASP185     -0.2456
    106  OD2       10.1900   29.6720    8.1720 O.co2 185  ASP185     -0.2456
    107  N         12.1900   33.8370    8.2160 N.3   187  VAL187     -0.1245
    108  CA        13.5220   33.2250    8.2270 C.3   187  VAL187      0.1561
    109  C         13.9460   32.7860    6.8200 C.2   187  VAL187      0.2260
    110  O         15.1010   32.9660    6.4250 O.2   187  VAL187     -0.2867
    111  CB        13.5920   32.0270    9.2190 C.3   187  VAL187      0.0252
    112  CG1       14.9640   31.3610    9.1870 C.3   187  VAL187      0.0019
    113  CG2       13.2550   32.4830   10.6390 C.3   187  VAL187      0.0019
    114  N          5.3730   28.7880    3.9520 N.3   192  ARG192     -0.1245
    115  CA         5.3650   27.5200    4.6530 C.3   192  ARG192      0.1563
    116  C          4.7100   26.4810    3.7270 C.2   192  ARG192      0.2260
    117  O          4.6550   26.6880    2.5170 O.2   192  ARG192     -0.2867
    118  CB         4.6690   27.7040    6.0030 C.3   192  ARG192      0.0307
    119  CG         5.4080   28.6920    6.9030 C.3   192  ARG192      0.0489
    120  CD         4.7240   28.8470    8.2650 C.3   192  ARG192      0.2205
    121  NE         5.5470   29.6600    9.1580 N.pl3 192  ARG192     -0.0865
    122  CZ         5.4850   30.9870    9.2360 C.cat 192  ARG192      0.5346
    123  NH1        4.5870   31.6640    8.5220 N.pl3 192  ARG192      0.1354
    124  NH2        6.2990   31.6410   10.0550 N.pl3 192  ARG192      0.1354
@<TRIPOS>BOND
     1   117   116    2
     2   116   115    1
     3   114   115    1
     4   115   118    1
     5   102   101    2
     6    99   100    1
     7   118   119    1
     8    52    51    1
     9   110   109    2
    10    51    53    1
    11    51    48    1
    12   109   108    1
    13   101   100    1
    14   119   120    1
    15   103   100    1
    16   103   104    1
    17    49    50    2
    18    49    48    1
    19    57    56    2
    20    61    59   am
    21    48    47    1
    22    58    59    1
    23    58    55    1
    24    54    55    1
    25   104   106   ar
    26   104   105   ar
    27   107   108    1
    28   108   111    1
    29   120   121    1
    30    59    60    2
    31    56    55    1
    32   123   122    1
    33   121   122    2
    34   112   111    1
    35   111   113    1
    36   122   124    1
    37    98    96    1
    38    97    95    1
    39    96    95    1
    40    84    83    2
    41    42    40   am
    42    95    92    1
    43    92    93    1
    44    92    91    1
    45    83    91   am
    46    83    82    1
    47    78    79    1
    48    78    77    1
    49    46    45    2
    50    40    41    2
    51    40    39    1
    52    33    32    2
    53    93    94    2
    54    81    79   am
    55    81    82    1
    56    45    44    1
    57    31    32    1
    58    31    30    1
    59    79    80    2
    60    77    75   am
    61    82    85    1
    62    39    38    1
    63    37    36    2
    64    75    76    2
    65    75    74    1
    66    85    86    1
    67    44    43    1
    68    30    26   am
    69    38    35    1
    70    36    43   am
    71    36    35    1
    72    74    73    1
    73    27    26    2
    74    29    28    1
    75    86    88   ar
    76    86    87   ar
    77    26    25    1
    78    88    90   ar
    79    35    34    1
    80    73    64   am
    81    87    89   ar
    82    28    25    1
    83    90    89   ar
    84    25    24    1
    85    22    21    2
    86    64    65    2
    87    64    63    1
    88    21    20    1
    89    62    63    1
    90    63    66    1
    91    23    20    1
    92    20    19    1
    93    72    70    1
    94     8     7    2
    95    66    67    1
    96    69    70    2
    97    69    68    1
    98    13    12    2
    99    67    68    1
   100    70    71    1
   101     9     7   am
   102    19    12   am
   103     7     6    1
   104     5     6    1
   105     5     2    1
   106    12    11    1
   107     2     1    1
   108     2     3    1
   109    11    10    1
   110    11    14    1
   111     3     4    2
   112    14    15    1
   113    18    16   am
   114    15    16    1
   115    16    17    2
