@<TRIPOS>MOLECULE
tmp/2bu5A00.pdb
 123 119 0 0 0
SMALL
GASTEIGER

@<TRIPOS>ATOM
      1  N         49.6910   57.8250   84.6470 N.3    16  SER16      -0.1217
      2  CA        49.5190   59.0230   83.8300 C.3    16  SER16       0.1889
      3  C         49.2060   58.7290   82.3760 C.2    16  SER16       0.2288
      4  O         50.1050   58.4620   81.5820 O.2    16  SER16      -0.2866
      5  CB        50.7800   59.8960   83.8980 C.3    16  SER16       0.2089
      6  OG        50.8790   60.5660   85.1450 O.3    16  SER16      -0.2183
      7  N         48.9070   59.0660   78.6690 N.3    18  LEU18      -0.1245
      8  CA        49.5730   59.9160   77.6930 C.3    18  LEU18       0.1561
      9  C         48.7800   59.9730   76.3890 C.2    18  LEU18       0.2260
     10  O         48.1020   59.0130   76.0180 O.2    18  LEU18      -0.2867
     11  CB        50.9730   59.3750   77.4010 C.3    18  LEU18       0.0270
     12  CG        51.8950   59.0620   78.5900 C.3    18  LEU18       0.0019
     13  CD1       53.1090   58.2680   78.1130 C.3    18  LEU18       0.0001
     14  CD2       52.3360   60.3530   79.2570 C.3    18  LEU18       0.0001
     15  N         51.7880   63.6890   72.5220 N.3    22  GLN22      -0.1231
     16  CA        52.9040   63.8280   73.4550 C.3    22  GLN22       0.1698
     17  C         53.9740   62.8100   73.0610 C.2    22  GLN22       0.2592
     18  O         55.1660   63.0130   73.3100 O.2    22  GLN22      -0.2718
     19  CB        52.4470   63.5540   74.8780 C.3    22  GLN22       0.0381
     20  CG        51.0470   64.0300   75.1620 C.3    22  GLN22       0.0905
     21  CD        50.7070   63.9700   76.6320 C.2    22  GLN22       0.2608
     22  OE1       49.6890   63.4020   77.0280 O.2    22  GLN22      -0.2717
     23  NE2       51.5580   64.5660   77.4540 N.am   22  GLN22      -0.0878
     24  N         53.5290   61.7140   72.4480 N.am   23  PHE23      -0.1976
     25  CA        54.4110   60.6420   71.9870 C.3    23  PHE23       0.1639
     26  C         55.1810   61.0850   70.7470 C.2    23  PHE23       0.2290
     27  O         56.3050   60.6570   70.5010 O.2    23  PHE23      -0.2864
     28  CB        53.5860   59.3980   71.6230 C.3    23  PHE23       0.0560
     29  CG        53.2420   58.5110   72.7960 C.ar   23  PHE23      -0.0200
     30  CD1       51.9240   58.1510   73.0520 C.ar   23  PHE23      -0.0042
     31  CD2       54.2400   57.9850   73.6050 C.ar   23  PHE23      -0.0042
     32  CE1       51.6070   57.2830   74.0880 C.ar   23  PHE23      -0.0003
     33  CE2       53.9270   57.1140   74.6440 C.ar   23  PHE23      -0.0003
     34  CZ        52.6120   56.7620   74.8840 C.ar   23  PHE23      -0.0000
     35  N         58.5250   63.4110   71.2020 N.3    26  PHE26      -0.1241
     36  CA        59.8260   62.7920   71.2780 C.3    26  PHE26       0.1605
     37  C         60.2230   62.3810   69.8680 C.2    26  PHE26       0.2264
     38  O         59.4450   62.5400   68.9220 O.2    26  PHE26      -0.2867
     39  CB        59.7730   61.5860   72.1920 C.3    26  PHE26       0.0534
     40  CG        60.1050   61.9160   73.5980 C.ar   26  PHE26      -0.0203
     41  CD1       59.7080   63.1270   74.1300 C.ar   26  PHE26      -0.0042
     42  CD2       60.8520   61.0520   74.3740 C.ar   26  PHE26      -0.0042
     43  CE1       60.0550   63.4810   75.4070 C.ar   26  PHE26      -0.0003
     44  CE2       61.2050   61.3950   75.6560 C.ar   26  PHE26      -0.0003
     45  CZ        60.8060   62.6140   76.1750 C.ar   26  PHE26      -0.0000
     46  N         65.2910   62.5910   80.1370 N.3    33  THR33      -0.1203
     47  CA        63.9220   63.0290   80.3770 C.3    33  THR33       0.1994
     48  C         62.9660   61.8410   80.4480 C.2    33  THR33       0.2618
     49  O         62.0080   61.8590   81.2150 O.2    33  THR33      -0.2717
     50  CB        63.4410   63.9790   79.2660 C.3    33  THR33       0.1784
     51  OG1       64.3000   65.1260   79.2070 O.3    33  THR33      -0.2211
     52  CG2       62.0130   64.4240   79.5330 C.3    33  THR33       0.0376
     53  N         63.2240   60.8110   79.6470 N.am   34  SER34      -0.1951
     54  CA        62.3830   59.6190   79.6570 C.3    34  SER34       0.1924
     55  C         62.7160   58.7410   80.8570 C.2    34  SER34       0.2314
     56  O         61.8220   58.3440   81.6110 O.2    34  SER34      -0.2863
     57  CB        62.5760   58.8040   78.3810 C.3    34  SER34       0.2116
     58  OG        61.8450   57.5890   78.4570 O.3    34  SER34      -0.2180
     59  N         61.2110   59.7760   83.8970 N.3    37  PHE37      -0.1227
     60  CA        59.7620   59.5830   83.8370 C.3    37  PHE37       0.1736
     61  C         59.3820   58.1220   84.0190 C.2    37  PHE37       0.2595
     62  O         58.5470   57.7930   84.8620 O.2    37  PHE37      -0.2718
     63  CB        59.1850   60.0550   82.5010 C.3    37  PHE37       0.0547
     64  CG        57.7360   59.6610   82.3040 C.ar   37  PHE37      -0.0202
     65  CD1       56.7390   60.2250   83.0820 C.ar   37  PHE37      -0.0042
     66  CD2       57.3820   58.6880   81.3790 C.ar   37  PHE37      -0.0042
     67  CE1       55.4210   59.8300   82.9450 C.ar   37  PHE37      -0.0003
     68  CE2       56.0610   58.2880   81.2360 C.ar   37  PHE37      -0.0003
     69  CZ        55.0830   58.8570   82.0190 C.ar   37  PHE37      -0.0000
     70  N         59.9920   57.2530   83.2150 N.am   38  LEU38      -0.1980
     71  CA        59.7080   55.8210   83.2660 C.3    38  LEU38       0.1596
     72  C         60.0580   55.1830   84.6040 C.2    38  LEU38       0.2287
     73  O         59.5130   54.1370   84.9570 O.2    38  LEU38      -0.2864
     74  CB        60.4410   55.1000   82.1290 C.3    38  LEU38       0.0297
     75  CG        59.8860   55.4320   80.7390 C.3    38  LEU38       0.0022
     76  CD1       60.6950   54.7360   79.6510 C.3    38  LEU38       0.0001
     77  CD2       58.4190   55.0140   80.6820 C.3    38  LEU38       0.0001
     78  N         54.9340   51.9030   76.4250 N.3   153  LEU153     -0.1245
     79  CA        55.9920   52.7560   76.9600 C.3   153  LEU153      0.1561
     80  C         57.3680   52.1410   76.7010 C.2   153  LEU153      0.2260
     81  O         58.2630   52.7890   76.1450 O.2   153  LEU153     -0.2867
     82  CB        55.7980   52.9610   78.4620 C.3   153  LEU153      0.0270
     83  CG        54.4680   53.6010   78.8530 C.3   153  LEU153      0.0019
     84  CD1       54.5540   54.1160   80.2770 C.3   153  LEU153      0.0001
     85  CD2       54.1630   54.7450   77.9110 C.3   153  LEU153      0.0001
     86  N         58.4070   52.2650   73.1460 N.3   156  GLN156     -0.1231
     87  CA        58.7160   53.6280   72.7230 C.3   156  GLN156      0.1698
     88  C         60.1310   54.0270   73.1360 C.2   156  GLN156      0.2592
     89  O         60.8470   54.6790   72.3790 O.2   156  GLN156     -0.2718
     90  CB        57.7070   54.6240   73.3060 C.3   156  GLN156      0.0381
     91  CG        56.4540   54.8310   72.4520 C.3   156  GLN156      0.0905
     92  CD        56.7790   55.1720   71.0020 C.2   156  GLN156      0.2608
     93  OE1       56.8730   54.2860   70.1480 O.2   156  GLN156     -0.2717
     94  NE2       56.9650   56.4580   70.7240 N.am  156  GLN156     -0.0878
     95  N         60.5300   53.6250   74.3390 N.am  157  HIS157     -0.1976
     96  CA        61.8580   53.9340   74.8480 C.3   157  HIS157      0.1656
     97  C         62.9390   53.1230   74.1290 C.2   157  HIS157      0.2291
     98  O         63.8600   53.6820   73.5320 O.2   157  HIS157     -0.2864
     99  CB        61.9340   53.6360   76.3430 C.3   157  HIS157      0.0771
    100  CG        63.1580   54.1890   77.0040 C.ar  157  HIS157      0.0820
    101  ND1       63.2760   55.5160   77.3580 N.ar  157  HIS157     -0.2267
    102  CD2       64.3260   53.6010   77.3560 C.ar  157  HIS157      0.1154
    103  CE1       64.4630   55.7210   77.8990 C.ar  157  HIS157      0.1986
    104  NE2       65.1200   54.5760   77.9090 N.ar  157  HIS157     -0.2212
    105  N         63.1600   54.1670   70.3150 N.3   160  ILE160     -0.1231
    106  CA        63.6640   55.5260   70.1000 C.3   160  ILE160      0.1692
    107  C         65.1260   55.7370   70.4920 C.2   160  ILE160      0.2592
    108  O         65.7950   56.6100   69.9370 O.2   160  ILE160     -0.2718
    109  CB        62.8300   56.5690   70.8770 C.3   160  ILE160      0.0266
    110  CG1       61.4170   56.6510   70.2980 C.3   160  ILE160      0.0019
    111  CG2       63.5170   57.9340   70.8190 C.3   160  ILE160      0.0020
    112  CD1       60.5350   57.6640   71.0000 C.3   160  ILE160      0.0001
    113  N         65.6270   54.9450   71.4370 N.am  161  PHE161     -0.1976
    114  CA        67.0080   55.1070   71.8790 C.3   161  PHE161      0.1639
    115  C         67.9470   53.9660   71.5070 C.2   161  PHE161      0.2290
    116  O         69.0830   53.9250   71.9730 O.2   161  PHE161     -0.2864
    117  CB        67.0420   55.3480   73.3920 C.3   161  PHE161      0.0560
    118  CG        66.2540   56.5570   73.8200 C.ar  161  PHE161     -0.0200
    119  CD1       66.5440   57.8100   73.2960 C.ar  161  PHE161     -0.0042
    120  CD2       65.1920   56.4340   74.6960 C.ar  161  PHE161     -0.0042
    121  CE1       65.7800   58.9160   73.6310 C.ar  161  PHE161     -0.0003
    122  CE2       64.4220   57.5340   75.0370 C.ar  161  PHE161     -0.0003
    123  CZ        64.7170   58.7790   74.5020 C.ar  161  PHE161     -0.0000
@<TRIPOS>BOND
     1    38    37    2
     2    37    36    1
     3   108   107    2
     4   106   105    1
     5   106   107    1
     6   106   109    1
     7    93    92    2
     8   110   109    1
     9   110   112    1
    10   107   113   am
    11    27    26    2
    12    94    92   am
    13    26    25    1
    14   111   109    1
    15    92    91    1
    16    35    36    1
    17    36    39    1
    18   113   114    1
    19   115   114    1
    20   115   116    2
    21    28    25    1
    22    28    29    1
    23   114   117    1
    24    25    24    1
    25    39    40    1
    26    89    88    2
    27    24    17   am
    28    91    90    1
    29    15    16    1
    30    87    88    1
    31    87    86    1
    32    87    90    1
    33    29    30   ar
    34    29    31   ar
    35    30    32   ar
    36    17    18    2
    37    17    16    1
    38    88    95   am
    39   119   121   ar
    40   119   118   ar
    41   117   118    1
    42    16    19    1
    43    98    97    2
    44    40    41   ar
    45    40    42   ar
    46    31    33   ar
    47   121   123   ar
    48   118   120   ar
    49    32    34   ar
    50    97    96    1
    51    41    43   ar
    52    95    96    1
    53    42    44   ar
    54   123   122   ar
    55    33    34   ar
    56   120   122   ar
    57    96    99    1
    58    19    20    1
    59    20    21    1
    60    43    45   ar
    61    44    45   ar
    62    10     9    2
    63    81    80    2
    64    99   100    1
    65     9     8    1
    66    78    79    1
    67    21    22    2
    68    21    23   am
    69    80    79    1
    70    79    82    1
    71   100   102   ar
    72   100   101   ar
    73   102   104   ar
    74   101   103   ar
    75    11     8    1
    76    11    12    1
    77     8     7    1
    78   103   104   ar
    79    85    83    1
    80    13    12    1
    81    57    58    1
    82    57    54    1
    83    82    83    1
    84    12    14    1
    85    83    84    1
    86    51    50    1
    87    50    52    1
    88    50    47    1
    89    53    54    1
    90    53    48   am
    91    76    75    1
    92    54    55    1
    93    46    47    1
    94    47    48    1
    95    48    49    2
    96    77    75    1
    97    75    74    1
    98    55    56    2
    99    68    66   ar
   100    68    69   ar
   101    66    64   ar
   102     4     3    2
   103    69    67   ar
   104    74    71    1
   105    64    63    1
   106    64    65   ar
   107     3     2    1
   108    63    60    1
   109    67    65   ar
   110    70    71    1
   111    70    61   am
   112    71    72    1
   113     2     5    1
   114     2     1    1
   115    60    59    1
   116    60    61    1
   117     5     6    1
   118    61    62    2
   119    72    73    2
