@<TRIPOS>MOLECULE
tmp/2bu6A00.pdb
 138 136 0 0 0
SMALL
GASTEIGER

@<TRIPOS>ATOM
      1  N         49.8890   58.0390   84.7440 N.3    16  SER16      -0.1203
      2  CA        49.6900   59.2750   84.0030 C.3    16  SER16       0.2005
      3  C         49.4220   59.0260   82.5360 C.2    16  SER16       0.2461
      4  O         50.3280   58.6810   81.7800 O.2    16  SER16      -0.2732
      5  CB        50.9210   60.1680   84.1500 C.3    16  SER16       0.2103
      6  OG        51.1130   60.5150   85.5080 O.3    16  SER16      -0.2182
      7  N         48.1720   59.2280   82.1070 N.am   17  PRO17      -0.2717
      8  CA        47.8070   59.0090   80.7080 C.3    17  PRO17       0.1535
      9  C         48.5150   59.9700   79.7750 C.2    17  PRO17       0.2598
     10  O         48.5150   61.1700   79.9990 O.2    17  PRO17      -0.2715
     11  CB        46.2910   59.2210   80.6980 C.3    17  PRO17       0.0310
     12  CG        45.8840   58.9410   82.1090 C.3    17  PRO17       0.0237
     13  CD        46.9940   59.5750   82.9140 C.3    17  PRO17       0.0939
     14  N         49.1240   59.4290   78.7300 N.am   18  LEU18      -0.1978
     15  CA        49.8070   60.2340   77.7380 C.3    18  LEU18       0.1596
     16  C         49.0010   60.2110   76.4510 C.2    18  LEU18       0.2287
     17  O         48.2950   59.2400   76.1650 O.2    18  LEU18      -0.2864
     18  CB        51.1980   59.6890   77.4770 C.3    18  LEU18       0.0297
     19  CG        52.2780   60.3640   78.3120 C.3    18  LEU18       0.0022
     20  CD1       53.1470   59.3330   78.9990 C.3    18  LEU18       0.0001
     21  CD2       53.0910   61.2460   77.3950 C.3    18  LEU18       0.0001
     22  N         51.7880   63.9080   72.6740 N.3    22  GLN22      -0.1231
     23  CA        52.9380   64.0430   73.5650 C.3    22  GLN22       0.1698
     24  C         53.9790   62.9760   73.1900 C.2    22  GLN22       0.2592
     25  O         55.1740   63.2460   73.2250 O.2    22  GLN22      -0.2718
     26  CB        52.5290   63.9150   75.0360 C.3    22  GLN22       0.0381
     27  CG        51.0820   63.5490   75.2520 C.3    22  GLN22       0.0905
     28  CD        50.5050   64.1420   76.5220 C.2    22  GLN22       0.2608
     29  OE1       49.4510   63.7110   77.0080 O.2    22  GLN22      -0.2717
     30  NE2       51.1840   65.1460   77.0610 N.am   22  GLN22      -0.0878
     31  N         53.5270   61.7800   72.8020 N.am   23  PHE23      -0.1976
     32  CA        54.4440   60.7070   72.3950 C.3    23  PHE23       0.1639
     33  C         55.2070   61.1370   71.1500 C.2    23  PHE23       0.2290
     34  O         56.3850   60.8120   70.9740 O.2    23  PHE23      -0.2864
     35  CB        53.6810   59.4210   72.0460 C.3    23  PHE23       0.0560
     36  CG        53.2840   58.5850   73.2330 C.ar   23  PHE23      -0.0200
     37  CD1       51.9500   58.2860   73.4570 C.ar   23  PHE23      -0.0042
     38  CD2       54.2390   58.0520   74.0910 C.ar   23  PHE23      -0.0042
     39  CE1       51.5680   57.4740   74.5020 C.ar   23  PHE23      -0.0003
     40  CE2       53.8560   57.2310   75.1500 C.ar   23  PHE23      -0.0003
     41  CZ        52.5220   56.9430   75.3530 C.ar   23  PHE23      -0.0000
     42  N         55.8970   64.3260   70.1720 N.3    25  ASP25      -0.1225
     43  CA        56.8330   65.4050   70.4390 C.3    25  ASP25       0.1805
     44  C         57.9200   64.8220   71.3300 C.2    25  ASP25       0.2597
     45  O         57.9460   65.0370   72.5430 O.2    25  ASP25      -0.2718
     46  CB        56.1160   66.5740   71.1200 C.3    25  ASP25       0.1424
     47  CG        54.9280   67.0820   70.3050 C.2    25  ASP25       0.3668
     48  OD1       55.0230   67.1110   69.0580 O.co2  25  ASP25      -0.2456
     49  OD2       53.9020   67.4660   70.9090 O.co2  25  ASP25      -0.2456
     50  N         58.7850   64.0360   70.6940 N.am   26  PHE26      -0.1976
     51  CA        59.9070   63.3740   71.3420 C.3    26  PHE26       0.1639
     52  C         60.8010   62.8400   70.2350 C.2    26  PHE26       0.2290
     53  O         60.4470   62.9240   69.0580 O.2    26  PHE26      -0.2864
     54  CB        59.4330   62.2080   72.2120 C.3    26  PHE26       0.0560
     55  CG        59.8680   62.3190   73.6350 C.ar   26  PHE26      -0.0200
     56  CD1       59.1490   63.0910   74.5290 C.ar   26  PHE26      -0.0042
     57  CD2       61.0280   61.6920   74.0710 C.ar   26  PHE26      -0.0042
     58  CE1       59.5900   63.2560   75.8280 C.ar   26  PHE26      -0.0003
     59  CE2       61.4740   61.8540   75.3760 C.ar   26  PHE26      -0.0003
     60  CZ        60.7480   62.6310   76.2550 C.ar   26  PHE26      -0.0000
     61  N         65.4510   62.7350   80.1920 N.3    31  THR31      -0.1203
     62  CA        64.0920   63.1750   80.4780 C.3    31  THR31       0.1994
     63  C         63.1690   61.9700   80.5590 C.2    31  THR31       0.2618
     64  O         62.2920   61.9070   81.4200 O.2    31  THR31      -0.2717
     65  CB        63.5660   64.1130   79.3810 C.3    31  THR31       0.1784
     66  OG1       64.4520   65.2340   79.2400 O.3    31  THR31      -0.2211
     67  CG2       62.1710   64.6030   79.7360 C.3    31  THR31       0.0376
     68  N         63.3770   61.0120   79.6580 N.am   32  SER32      -0.1951
     69  CA        62.5670   59.8000   79.6400 C.3    32  SER32       0.1924
     70  C         62.8960   58.9080   80.8320 C.2    32  SER32       0.2314
     71  O         61.9930   58.4270   81.5270 O.2    32  SER32      -0.2863
     72  CB        62.8030   59.0160   78.3500 C.3    32  SER32       0.2116
     73  OG        62.0850   57.7980   78.3850 O.3    32  SER32      -0.2180
     74  N         61.4680   59.9780   83.9520 N.3    35  PHE35      -0.1227
     75  CA        60.0200   59.8040   83.9010 C.3    35  PHE35       0.1736
     76  C         59.6350   58.3330   84.0710 C.2    35  PHE35       0.2595
     77  O         58.8180   57.9900   84.9280 O.2    35  PHE35      -0.2718
     78  CB        59.4640   60.3150   82.5710 C.3    35  PHE35       0.0547
     79  CG        58.0090   59.9750   82.3490 C.ar   35  PHE35      -0.0202
     80  CD1       57.0190   60.5490   83.1310 C.ar   35  PHE35      -0.0042
     81  CD2       57.6390   59.0690   81.3630 C.ar   35  PHE35      -0.0042
     82  CE1       55.6840   60.2300   82.9330 C.ar   35  PHE35      -0.0003
     83  CE2       56.3120   58.7430   81.1580 C.ar   35  PHE35      -0.0003
     84  CZ        55.3300   59.3230   81.9420 C.ar   35  PHE35      -0.0000
     85  N         60.2270   57.4660   83.2540 N.am   36  LEU36      -0.1980
     86  CA        59.9130   56.0410   83.3180 C.3    36  LEU36       0.1596
     87  C         60.2420   55.3900   84.6620 C.2    36  LEU36       0.2287
     88  O         59.6060   54.4080   85.0510 O.2    36  LEU36      -0.2864
     89  CB        60.6110   55.3030   82.1710 C.3    36  LEU36       0.0297
     90  CG        60.0260   55.6500   80.7970 C.3    36  LEU36       0.0022
     91  CD1       60.7660   54.9010   79.6880 C.3    36  LEU36       0.0001
     92  CD2       58.5360   55.3070   80.8010 C.3    36  LEU36       0.0001
     93  N         55.1260   52.1760   76.5090 N.3   151  LEU151     -0.1245
     94  CA        56.2000   53.0220   77.0270 C.3   151  LEU151      0.1561
     95  C         57.5520   52.3830   76.7390 C.2   151  LEU151      0.2260
     96  O         58.4470   53.0150   76.1740 O.2   151  LEU151     -0.2867
     97  CB        56.0370   53.2310   78.5330 C.3   151  LEU151      0.0270
     98  CG        54.6840   53.8190   78.9360 C.3   151  LEU151      0.0019
     99  CD1       54.7310   54.3260   80.3740 C.3   151  LEU151      0.0001
    100  CD2       54.3470   54.9540   77.9810 C.3   151  LEU151      0.0001
    101  N         58.5440   52.4860   73.1510 N.3   154  GLN154     -0.1231
    102  CA        58.8190   53.8530   72.7500 C.3   154  GLN154      0.1698
    103  C         60.2340   54.2440   73.1660 C.2   154  GLN154      0.2592
    104  O         60.9700   54.8530   72.3950 O.2   154  GLN154     -0.2718
    105  CB        57.7890   54.8050   73.3690 C.3   154  GLN154      0.0381
    106  CG        56.5260   54.9870   72.5300 C.3   154  GLN154      0.0905
    107  CD        56.8440   55.3970   71.1000 C.2   154  GLN154      0.2608
    108  OE1       56.9790   54.5510   70.2060 O.2   154  GLN154     -0.2717
    109  NE2       56.9890   56.7030   70.8820 N.am  154  GLN154     -0.0878
    110  N         60.6200   53.8710   74.3800 N.am  155  HIS155     -0.1976
    111  CA        61.9490   54.1930   74.8840 C.3   155  HIS155      0.1656
    112  C         63.0420   53.4190   74.1440 C.2   155  HIS155      0.2291
    113  O         63.9310   54.0110   73.5220 O.2   155  HIS155     -0.2864
    114  CB        62.0340   53.8790   76.3760 C.3   155  HIS155      0.0771
    115  CG        63.2520   54.4410   77.0360 C.ar  155  HIS155      0.0820
    116  ND1       63.3800   55.7770   77.3410 N.ar  155  HIS155     -0.2267
    117  CD2       64.4130   53.8530   77.4060 C.ar  155  HIS155      0.1154
    118  CE1       64.5710   55.9910   77.8730 C.ar  155  HIS155      0.1986
    119  NE2       65.2180   54.8420   77.9220 N.ar  155  HIS155     -0.2212
    120  N         63.3150   54.3680   70.4400 N.3   158  ILE158     -0.1231
    121  CA        63.7840   55.7420   70.2680 C.3   158  ILE158      0.1692
    122  C         65.2740   55.9190   70.5580 C.2   158  ILE158      0.2592
    123  O         65.9520   56.6970   69.8820 O.2   158  ILE158     -0.2718
    124  CB        63.0100   56.7180   71.1900 C.3   158  ILE158      0.0266
    125  CG1       61.5900   56.9280   70.6650 C.3   158  ILE158      0.0019
    126  CG2       63.7350   58.0520   71.2660 C.3   158  ILE158      0.0020
    127  CD1       60.7350   57.7890   71.5690 C.3   158  ILE158      0.0001
    128  N         65.7870   55.1890   71.5450 N.am  159  PHE159     -0.1976
    129  CA        67.1870   55.3200   71.9300 C.3   159  PHE159      0.1639
    130  C         68.1080   54.1500   71.5870 C.2   159  PHE159      0.2290
    131  O         69.2030   54.0460   72.1350 O.2   159  PHE159     -0.2864
    132  CB        67.2530   55.6250   73.4270 C.3   159  PHE159      0.0560
    133  CG        66.4450   56.8320   73.8250 C.ar  159  PHE159     -0.0200
    134  CD1       66.7580   58.0900   73.3220 C.ar  159  PHE159     -0.0042
    135  CD2       65.3440   56.7040   74.6600 C.ar  159  PHE159     -0.0042
    136  CE1       65.9820   59.2010   73.6400 C.ar  159  PHE159     -0.0003
    137  CE2       64.5610   57.8080   74.9840 C.ar  159  PHE159     -0.0003
    138  CZ        64.8810   59.0600   74.4720 C.ar  159  PHE159     -0.0000
@<TRIPOS>BOND
     1    48    47   ar
     2    53    52    2
     3   123   122    2
     4    42    43    1
     5   108   107    2
     6    52    51    1
     7   121   120    1
     8   121   122    1
     9   121   124    1
    10    47    49   ar
    11    47    46    1
    12    43    46    1
    13    43    44    1
    14   122   128   am
    15   125   124    1
    16   125   127    1
    17    50    44   am
    18    50    51    1
    19   109   107   am
    20    34    33    2
    21   107   106    1
    22    33    32    1
    23   124   126    1
    24    44    45    2
    25    51    54    1
    26   128   129    1
    27   130   129    1
    28   130   131    2
    29   129   132    1
    30    35    32    1
    31    35    36    1
    32    54    55    1
    33    32    31    1
    34   104   103    2
    35   106   105    1
    36    22    23    1
    37   102   101    1
    38   102   103    1
    39   102   105    1
    40    31    24   am
    41   103   110   am
    42    24    25    2
    43    24    23    1
    44    36    37   ar
    45    36    38   ar
    46   134   136   ar
    47   134   133   ar
    48   132   133    1
    49    37    39   ar
    50   113   112    2
    51    23    26    1
    52    55    57   ar
    53    55    56   ar
    54   136   138   ar
    55   133   135   ar
    56    57    59   ar
    57    38    40   ar
    58   112   111    1
    59   110   111    1
    60   138   137   ar
    61    39    41   ar
    62    56    58   ar
    63   135   137   ar
    64   111   114    1
    65    26    27    1
    66    40    41   ar
    67    27    28    1
    68    59    60   ar
    69    58    60   ar
    70    17    16    2
    71    96    95    2
    72   114   115    1
    73    16    15    1
    74    93    94    1
    75    28    29    2
    76    28    30   am
    77    95    94    1
    78    94    97    1
    79   115   116   ar
    80   115   117   ar
    81   116   118   ar
    82    21    19    1
    83   117   119   ar
    84    18    15    1
    85    18    19    1
    86    15    14    1
    87   118   119   ar
    88   100    98    1
    89    19    20    1
    90    72    73    1
    91    72    69    1
    92    97    98    1
    93    14     9   am
    94    98    99    1
    95    66    65    1
    96    65    67    1
    97    65    62    1
    98    69    68    1
    99    69    70    1
   100    68    63   am
   101    91    90    1
   102     9    10    2
   103     9     8    1
   104    61    62    1
   105    62    63    1
   106    63    64    2
   107    11     8    1
   108    11    12    1
   109     8     7    1
   110    90    92    1
   111    90    89    1
   112    70    71    2
   113    83    81   ar
   114    83    84   ar
   115    81    79   ar
   116     4     3    2
   117    84    82   ar
   118     7     3   am
   119     7    13    1
   120    12    13    1
   121    89    86    1
   122    79    78    1
   123    79    80   ar
   124     3     2    1
   125    78    75    1
   126    82    80   ar
   127    85    86    1
   128    85    76   am
   129    86    87    1
   130    75    74    1
   131    75    76    1
   132     2     5    1
   133     2     1    1
   134    76    77    2
   135     5     6    1
   136    87    88    2
