@<TRIPOS>MOLECULE
tmp/2bu9A00.pdb
 221 203 0 0 0
SMALL
GASTEIGER

@<TRIPOS>ATOM
      1  N         21.0820   35.9480   10.8120 N.3    85  ARG85      -0.1245
      2  CA        20.0820   35.5320    9.8090 C.3    85  ARG85       0.1563
      3  C         19.4020   34.2260   10.2220 C.2    85  ARG85       0.2260
      4  O         18.1610   34.1180   10.1530 O.2    85  ARG85      -0.2867
      5  CB        20.7370   35.2970    8.4460 C.3    85  ARG85       0.0307
      6  CG        21.3050   36.5780    7.8120 C.3    85  ARG85       0.0489
      7  CD        21.8650   36.3240    6.4460 C.3    85  ARG85       0.2205
      8  NE        20.8470   36.0060    5.4560 N.pl3  85  ARG85      -0.0865
      9  CZ        21.0910   35.4700    4.2670 C.cat  85  ARG85       0.5346
     10  NH1       22.3230   35.1900    3.8540 N.pl3  85  ARG85       0.1354
     11  NH2       20.0690   35.2250    3.4560 N.pl3  85  ARG85       0.1354
     12  N         13.0210   32.9120   15.2250 N.3    89  TYR89      -0.1241
     13  CA        12.5600   34.2850   15.3880 C.3    89  TYR89       0.1605
     14  C         11.2880   34.1120   16.2540 C.2    89  TYR89       0.2264
     15  O         10.2620   33.6190   15.7720 O.2    89  TYR89      -0.2867
     16  CB        12.1840   34.9090   14.0480 C.3    89  TYR89       0.0534
     17  CG        13.3430   35.1990   13.0660 C.ar   89  TYR89      -0.0201
     18  CD1       14.2600   34.2290   12.7410 C.ar   89  TYR89      -0.0009
     19  CD2       13.4460   36.4330   12.4830 C.ar   89  TYR89      -0.0009
     20  CE1       15.2760   34.4980   11.8280 C.ar   89  TYR89       0.0417
     21  CE2       14.4530   36.6870   11.6000 C.ar   89  TYR89       0.0417
     22  CZ        15.3730   35.7380   11.3110 C.ar   89  TYR89       0.1957
     23  OH        16.3980   36.1120   10.4110 O.3    89  TYR89      -0.2866
     24  N          3.5820   36.6450   14.9350 N.3    98  VAL98      -0.1245
     25  CA         4.2910   35.8010   14.0290 C.3    98  VAL98       0.1561
     26  C          5.5910   35.2830   14.6110 C.2    98  VAL98       0.2260
     27  O          6.2510   35.9200   15.4370 O.2    98  VAL98      -0.2867
     28  CB         4.5340   36.6180   12.7430 C.3    98  VAL98       0.0252
     29  CG1        5.5270   37.7620   12.9400 C.3    98  VAL98       0.0019
     30  CG2        4.9630   35.7160   11.6180 C.3    98  VAL98       0.0019
     31  N          9.0170   32.3620   13.3360 N.3   100  SER100     -0.1217
     32  CA         9.5710   31.7660   12.1490 C.3   100  SER100      0.1889
     33  C         10.8810   31.1080   12.4060 C.2   100  SER100      0.2288
     34  O         11.5420   31.3370   13.4480 O.2   100  SER100     -0.2866
     35  CB         9.7150   32.7500   11.0150 C.3   100  SER100      0.2089
     36  OG        10.7000   33.6770   11.2970 O.3   100  SER100     -0.2183
     37  N         14.4950   30.4360   10.0910 N.3   102  CYS102     -0.1235
     38  CA        15.2350   30.7380    8.8800 C.3   102  CYS102      0.1677
     39  C         16.4570   29.8310    8.7790 C.2   102  CYS102      0.2270
     40  O         17.2190   29.6920    9.7520 O.2   102  CYS102     -0.2867
     41  CB        15.6620   32.2210    8.8830 C.3   102  CYS102      0.0956
     42  SG        16.6970   32.7170    7.4730 S.3   102  CYS102     -0.0801
     43  N         17.8410   32.0630    1.1040 N.3   181  SER181     -0.1217
     44  CA        17.3390   31.6030    2.3950 C.3   181  SER181      0.1889
     45  C         15.9060   31.0550    2.2710 C.2   181  SER181      0.2288
     46  O         15.1360   31.4860    1.3830 O.2   181  SER181     -0.2866
     47  CB        17.3350   32.6780    3.4410 C.3   181  SER181      0.2089
     48  OG        16.5000   33.7570    3.0140 O.3   181  SER181     -0.2183
     49  N         12.5490   30.7090    4.7960 N.3   183  VAL183     -0.1245
     50  CA        11.9410   31.0550    6.0530 C.3   183  VAL183      0.1561
     51  C         10.6670   30.2790    6.2420 C.2   183  VAL183      0.2260
     52  O          9.7920   30.3100    5.3700 O.2   183  VAL183     -0.2867
     53  CB        11.6830   32.5870    6.1890 C.3   183  VAL183      0.0252
     54  CG1       11.3190   32.8840    7.6520 C.3   183  VAL183      0.0019
     55  CG2       12.9470   33.3610    5.8620 C.3   183  VAL183      0.0019
     56  N          7.5720   30.3870    8.1670 N.3   185  ILE185     -0.1245
     57  CA         6.7870   31.3430    8.9730 C.3   185  ILE185      0.1561
     58  C          5.4690   30.7440    9.4400 C.2   185  ILE185      0.2260
     59  O          4.7340   30.1780    8.6410 O.2   185  ILE185     -0.2867
     60  CB         6.5300   32.6290    8.1990 C.3   185  ILE185      0.0252
     61  CG1        7.7580   33.2290    7.5750 C.3   185  ILE185      0.0019
     62  CG2        5.8060   33.6520    9.0900 C.3   185  ILE185      0.0019
     63  CD1        7.5020   34.1850    6.4350 C.3   185  ILE185      0.0001
     64  N          2.0190   31.9240   11.1820 N.3   187  TYR187     -0.1241
     65  CA         1.0470   32.8980   11.6810 C.3   187  TYR187      0.1605
     66  C          0.0210   32.1420   12.4640 C.2   187  TYR187      0.2264
     67  O         -0.6210   31.2250   11.9740 O.2   187  TYR187     -0.2867
     68  CB         0.3770   33.6260   10.4920 C.3   187  TYR187      0.0534
     69  CG         1.2040   34.6650    9.8100 C.ar  187  TYR187     -0.0201
     70  CD1        1.1700   35.9640   10.2480 C.ar  187  TYR187     -0.0009
     71  CD2        2.0060   34.3470    8.7250 C.ar  187  TYR187     -0.0009
     72  CE1        1.9460   36.9230    9.6170 C.ar  187  TYR187      0.0417
     73  CE2        2.7330   35.2850    8.0630 C.ar  187  TYR187      0.0417
     74  CZ         2.7050   36.5870    8.5180 C.ar  187  TYR187      0.1957
     75  OH         3.3610   37.6310    7.9240 O.3   187  TYR187     -0.2866
     76  N         -0.4720   42.6970    9.2880 N.3   208  SER208     -0.1202
     77  CA         0.5780   42.0810   10.0510 C.3   208  SER208      0.2020
     78  C          1.9380   42.6400    9.6910 C.2   208  SER208      0.2618
     79  O          2.8520   42.5410   10.5230 O.2   208  SER208     -0.2717
     80  CB         0.5860   40.5690    9.8630 C.3   208  SER208      0.2103
     81  OG        -0.5400   39.9490   10.4620 O.3   208  SER208     -0.2182
     82  N          2.1050   43.2100    8.4970 N.am  209  PHE209     -0.1975
     83  CA         3.4160   43.7480    8.0900 C.3   209  PHE209      0.1639
     84  C          3.1670   44.8010    7.0500 C.2   209  PHE209      0.2290
     85  O          2.3380   44.6300    6.1260 O.2   209  PHE209     -0.2864
     86  CB         4.2860   42.6140    7.5370 C.3   209  PHE209      0.0560
     87  CG         5.7370   42.9120    7.3350 C.ar  209  PHE209     -0.0200
     88  CD1        6.5710   43.1030    8.4190 C.ar  209  PHE209     -0.0042
     89  CD2        6.2810   42.9670    6.0760 C.ar  209  PHE209     -0.0042
     90  CE1        7.9050   43.3160    8.2710 C.ar  209  PHE209     -0.0003
     91  CE2        7.6530   43.1890    5.9360 C.ar  209  PHE209     -0.0003
     92  CZ         8.4460   43.3170    7.0340 C.ar  209  PHE209     -0.0000
     93  N          6.4210   47.1350    1.6310 N.3   212  HIS212     -0.1241
     94  CA         7.8380   46.9660    1.3780 C.3   212  HIS212      0.1621
     95  C          8.0560   46.4510   -0.0170 C.2   212  HIS212      0.2264
     96  O          7.1610   45.9070   -0.6580 O.2   212  HIS212     -0.2867
     97  CB         8.4800   45.9710    2.3840 C.3   212  HIS212      0.0745
     98  CG         7.9400   44.5970    2.2900 C.ar  212  HIS212      0.0817
     99  ND1        6.6680   44.2610    2.6960 N.ar  212  HIS212     -0.2268
    100  CD2        8.4750   43.4750    1.7390 C.ar  212  HIS212      0.1154
    101  CE1        6.4620   42.9730    2.4160 C.ar  212  HIS212      0.1986
    102  NE2        7.5350   42.4470    1.8280 N.ar  212  HIS212     -0.2212
    103  N         10.7070   43.5300   -1.6750 N.3   214  ASP214     -0.1225
    104  CA        11.5170   42.4020   -1.2160 C.3   214  ASP214      0.1805
    105  C         13.0260   42.6810   -1.4030 C.2   214  ASP214      0.2597
    106  O         13.4670   43.3030   -2.3930 O.2   214  ASP214     -0.2718
    107  CB        11.1520   41.0980   -1.8760 C.3   214  ASP214      0.1424
    108  CG         9.9010   40.5040   -1.3800 C.2   214  ASP214      0.3668
    109  OD1        9.3040   41.0700   -0.4400 O.co2 214  ASP214     -0.2456
    110  OD2        9.5090   39.4650   -1.8980 O.co2 214  ASP214     -0.2456
    111  N         13.7950   42.1430   -0.4470 N.am  215  VAL215     -0.1980
    112  CA        15.2340   42.0760   -0.5570 C.3   215  VAL215      0.1595
    113  C         15.5850   40.7320   -1.1470 C.2   215  VAL215      0.2287
    114  O         15.6000   39.6940   -0.4670 O.2   215  VAL215     -0.2864
    115  CB        15.8970   42.2850    0.7960 C.3   215  VAL215      0.0276
    116  CG1       17.4510   42.3220    0.6440 C.3   215  VAL215      0.0022
    117  CG2       15.4710   43.5820    1.3730 C.3   215  VAL215      0.0022
    118  N         11.5750   36.3370   -5.4020 N.3   219  THR219     -0.1218
    119  CA        11.0400   35.6310   -4.2460 C.3   219  THR219      0.1862
    120  C         10.0960   34.5430   -4.7280 C.2   219  THR219      0.2287
    121  O          9.2980   34.7870   -5.6320 O.2   219  THR219     -0.2866
    122  CB        10.3300   36.5980   -3.3410 C.3   219  THR219      0.1770
    123  OG1       11.2560   37.6210   -2.9300 O.3   219  THR219     -0.2211
    124  CG2        9.7310   35.8840   -2.1120 C.3   219  THR219      0.0375
    125  N          2.3880   29.6500    0.1860 N.3   223  GLN223     -0.1245
    126  CA         1.5420   30.0100    1.3180 C.3   223  GLN223      0.1566
    127  C          0.3410   29.1100    1.3970 C.2   223  GLN223      0.2260
    128  O         -0.1440   28.6050    0.3720 O.2   223  GLN223     -0.2867
    129  CB         0.9890   31.4460    1.1630 C.3   223  GLN223      0.0367
    130  CG         2.0320   32.5080    1.0900 C.3   223  GLN223      0.0905
    131  CD         1.4190   33.8230    1.4290 C.2   223  GLN223      0.2608
    132  OE1        0.3820   34.2070    0.8760 O.2   223  GLN223     -0.2717
    133  NE2        2.0520   34.5160    2.3530 N.am  223  GLN223     -0.0878
    134  N         -2.2490   38.7060    1.0630 N.3   229  LEU229     -0.1245
    135  CA        -1.3170   39.6860    0.4690 C.3   229  LEU229      0.1561
    136  C         -2.0510   40.6930   -0.3740 C.2   229  LEU229      0.2260
    137  O         -3.0310   40.4230   -1.0210 O.2   229  LEU229     -0.2867
    138  CB        -0.3330   38.9190   -0.3880 C.3   229  LEU229      0.0270
    139  CG         0.5990   37.9540    0.3280 C.3   229  LEU229      0.0019
    140  CD1        1.5250   37.2920   -0.7180 C.3   229  LEU229      0.0001
    141  CD2        1.4190   38.6150    1.3980 C.3   229  LEU229      0.0001
    142  N          4.3130   45.5480   -1.6880 N.3   268  HIS268     -0.1241
    143  CA         3.2460   44.7070   -1.1760 C.3   268  HIS268      0.1621
    144  C          3.2300   44.7650    0.3100 C.2   268  HIS268      0.2264
    145  O          4.2000   45.2120    0.9410 O.2   268  HIS268     -0.2867
    146  CB         3.3650   43.2600   -1.7280 C.3   268  HIS268      0.0745
    147  CG         4.6740   42.6170   -1.4680 C.ar  268  HIS268      0.0817
    148  ND1        5.8410   42.9670   -2.1110 N.ar  268  HIS268     -0.2268
    149  CD2        4.9970   41.6640   -0.5750 C.ar  268  HIS268      0.1154
    150  CE1        6.8210   42.2070   -1.6150 C.ar  268  HIS268      0.1986
    151  NE2        6.3380   41.4060   -0.6690 N.ar  268  HIS268     -0.2212
    152  N          1.1390   42.7650    4.0260 N.3   270  VAL270     -0.1245
    153  CA         0.4900   41.5550    4.5470 C.3   270  VAL270      0.1561
    154  C         -0.6470   41.9750    5.4190 C.2   270  VAL270      0.2260
    155  O         -0.4450   42.5800    6.4920 O.2   270  VAL270     -0.2867
    156  CB         1.4800   40.7340    5.3840 C.3   270  VAL270      0.0252
    157  CG1        0.8160   39.4370    5.8650 C.3   270  VAL270      0.0019
    158  CG2        2.7330   40.3860    4.5690 C.3   270  VAL270      0.0019
    159  N          3.5310   30.7390    5.8020 N.3   279  SER279     -0.1217
    160  CA         4.1340   31.4760    4.6830 C.3   279  SER279      0.1889
    161  C          5.5760   31.0010    4.5730 C.2   279  SER279      0.2288
    162  O          6.3380   31.0850    5.5660 O.2   279  SER279     -0.2866
    163  CB         3.9980   32.9520    4.8550 C.3   279  SER279      0.2089
    164  OG         4.5210   33.5850    3.6730 O.3   279  SER279     -0.2183
    165  N          8.6100   31.5460    2.2440 N.3   281  PRO281     -0.2116
    166  CA         9.3850   32.1360    1.1740 C.3   281  PRO281      0.1372
    167  C         10.7720   31.5320    1.0130 C.2   281  PRO281      0.2244
    168  O         11.4110   31.1290    1.9760 O.2   281  PRO281     -0.2868
    169  CB         9.5450   33.6150    1.6120 C.3   281  PRO281      0.0268
    170  CG         9.5060   33.5380    3.1120 C.3   281  PRO281      0.0207
    171  CD         8.4740   32.4450    3.3900 C.3   281  PRO281      0.0892
    172  N         14.0020   33.2100   -0.6930 N.3   283  PHE283     -0.1241
    173  CA        14.5460   34.4540   -1.2220 C.3   283  PHE283      0.1605
    174  C         15.7040   34.0840   -2.0850 C.2   283  PHE283      0.2264
    175  O         16.7310   33.5870   -1.5830 O.2   283  PHE283     -0.2867
    176  CB        14.9320   35.4040   -0.0770 C.3   283  PHE283      0.0534
    177  CG        13.7540   35.8310    0.7640 C.ar  283  PHE283     -0.0203
    178  CD1       12.7560   36.6480    0.2430 C.ar  283  PHE283     -0.0042
    179  CD2       13.6170   35.4310    2.0910 C.ar  283  PHE283     -0.0042
    180  CE1       11.6890   37.0490    1.0100 C.ar  283  PHE283     -0.0003
    181  CE2       12.5180   35.8240    2.8520 C.ar  283  PHE283     -0.0003
    182  CZ        11.5720   36.6480    2.3250 C.ar  283  PHE283     -0.0000
    183  N         18.7680   34.7870   -3.6860 N.3   285  ASN285     -0.1240
    184  CA        19.9010   35.6660   -3.5310 C.3   285  ASN285      0.1653
    185  C         21.0760   35.0440   -4.2880 C.2   285  ASN285      0.2266
    186  O         21.1890   33.8130   -4.3680 O.2   285  ASN285     -0.2867
    187  CB        20.2480   35.7910   -2.0430 C.3   285  ASN285      0.1155
    188  CG        19.1780   36.4750   -1.2510 C.2   285  ASN285      0.2627
    189  OD1       18.5350   37.4210   -1.7380 O.2   285  ASN285     -0.2716
    190  ND2       18.9920   36.0500   -0.0030 N.am  285  ASN285     -0.0877
    191  N         22.5960   42.8610   -0.1550 N.3   315  LEU315     -0.1245
    192  CA        21.8540   42.0270    0.7930 C.3   315  LEU315      0.1561
    193  C         22.0790   42.5380    2.2070 C.2   315  LEU315      0.2260
    194  O         21.1230   42.6970    2.9660 O.2   315  LEU315     -0.2867
    195  CB        22.2990   40.5780    0.6780 C.3   315  LEU315      0.0270
    196  CG        21.5380   39.5820    1.5660 C.3   315  LEU315      0.0019
    197  CD1       20.0720   39.5280    1.2400 C.3   315  LEU315      0.0001
    198  CD2       22.1160   38.2150    1.4100 C.3   315  LEU315      0.0001
    199  N         18.7660   43.9500    4.2490 N.3   319  LEU319     -0.1245
    200  CA        18.1940   43.2740    5.4140 C.3   319  LEU319      0.1561
    201  C         18.1640   44.2130    6.6070 C.2   319  LEU319      0.2260
    202  O         17.1640   44.2390    7.3050 O.2   319  LEU319     -0.2867
    203  CB        18.9200   41.9940    5.6980 C.3   319  LEU319      0.0270
    204  CG        18.7260   40.9510    4.5750 C.3   319  LEU319      0.0019
    205  CD1       19.4240   39.7140    4.9720 C.3   319  LEU319      0.0001
    206  CD2       17.2520   40.6690    4.1570 C.3   319  LEU319      0.0001
    207  N         15.3920   46.8780    5.9900 N.3   322  LEU322     -0.1245
    208  CA        14.0530   46.3920    6.1420 C.3   322  LEU322      0.1561
    209  C         13.6510   46.2500    7.6100 C.2   322  LEU322      0.2260
    210  O         12.5200   46.5210    7.9910 O.2   322  LEU322     -0.2867
    211  CB        13.9310   45.0660    5.4220 C.3   322  LEU322      0.0270
    212  CG        12.5270   44.4340    5.3370 C.3   322  LEU322      0.0019
    213  CD1       11.4980   45.3270    4.7200 C.3   322  LEU322      0.0001
    214  CD2       12.6110   43.0730    4.5970 C.3   322  LEU322      0.0001
    215  N         11.4580   41.0830   12.7920 N.3   329  THR329     -0.1218
    216  CA        10.4740   40.0250   12.6180 C.3   329  THR329      0.1862
    217  C         10.7840   38.8470   13.5350 C.2   329  THR329      0.2287
    218  O          9.9840   37.8690   13.4960 O.2   329  THR329     -0.2866
    219  CB        10.4570   39.5500   11.1480 C.3   329  THR329      0.1770
    220  OG1       11.6610   38.8670   10.7750 O.3   329  THR329     -0.2211
    221  CG2       10.1320   40.7150   10.1760 C.3   329  THR329      0.0375
@<TRIPOS>BOND
     1   121   120    2
     2   118   119    1
     3   120   119    1
     4   186   185    2
     5   185   184    1
     6   119   122    1
     7   183   184    1
     8   184   187    1
     9   122   123    1
    10   122   124    1
    11   106   105    2
    12   148   150   ar
    13   148   147   ar
    14   174   175    2
    15   174   173    1
    16   187   188    1
    17   110   108   ar
    18   107   108    1
    19   107   104    1
    20   189   188    2
    21   146   147    1
    22   146   143    1
    23   142   143    1
    24   103   104    1
    25   150   151   ar
    26   147   149   ar
    27   105   104    1
    28   105   111   am
    29   108   109   ar
    30   188   190   am
    31   173   172    1
    32   173   176    1
    33   143   144    1
    34   113   112    1
    35   113   114    2
    36   137   136    2
    37   140   139    1
    38   151   149   ar
    39    96    95    2
    40   112   111    1
    41   112   115    1
    42   138   139    1
    43   138   135    1
    44   136   135    1
    45   191   192    1
    46   176   177    1
    47    95    94    1
    48   125   126    1
    49   178   177   ar
    50   178   180   ar
    51   144   145    2
    52   139   141    1
    53   128   127    2
    54   135   134    1
    55   116   115    1
    56   195   192    1
    57   195   196    1
    58   177   179   ar
    59   192   193    1
    60   115   117    1
    61   132   131    2
    62   180   182   ar
    63   167   166    1
    64   167   168    2
    65   130   129    1
    66   130   131    1
    67    43    44    1
    68   129   126    1
    69   166   169    1
    70   166   165    1
    71   197   196    1
    72   126   127    1
    73    94    93    1
    74    94    97    1
    75    46    45    2
    76   198   196    1
    77   131   133   am
    78   169   170    1
    79   100   102   ar
    80   100    98   ar
    81   102   101   ar
    82   179   181   ar
    83   193   194    2
    84   165   171    1
    85    45    44    1
    86    98    97    1
    87    98    99   ar
    88   182   181   ar
    89    44    47    1
    90   101    99   ar
    91    48    47    1
    92   170   171    1
    93    11     9    1
    94   164   163    1
    95    10     9    1
    96   152   153    1
    97   206   204    1
    98   199   200    1
    99     9     8    2
   100   153   156    1
   101   153   154    1
   102   158   156    1
   103   161   160    1
   104   161   162    2
   105   204   205    1
   106   204   203    1
   107   214   212    1
   108   160   163    1
   109   160   159    1
   110   213   212    1
   111    49    50    1
   112   212   211    1
   113    52    51    2
   114   156   157    1
   115   200   203    1
   116   200   201    1
   117   154   155    2
   118   211   208    1
   119     8     7    1
   120    55    53    1
   121    91    89   ar
   122    91    92   ar
   123   207   208    1
   124    50    53    1
   125    50    51    1
   126    89    87   ar
   127    85    84    2
   128   208   209    1
   129    53    54    1
   130    63    61    1
   131     7     6    1
   132   201   202    2
   133    92    90   ar
   134    84    83    1
   135    87    86    1
   136    87    88   ar
   137    42    41    1
   138    86    83    1
   139    61    60    1
   140   209   210    2
   141     6     5    1
   142    75    74    1
   143    73    74   ar
   144    73    71   ar
   145    83    82    1
   146    56    57    1
   147    60    57    1
   148    60    62    1
   149    90    88   ar
   150     5     2    1
   151    82    78   am
   152    74    72   ar
   153    59    58    2
   154    71    69   ar
   155    39    38    1
   156    39    40    2
   157    38    41    1
   158    38    37    1
   159    57    58    1
   160    76    77    1
   161    72    70   ar
   162    78    77    1
   163    78    79    2
   164     2     3    1
   165     2     1    1
   166    69    70   ar
   167    69    68    1
   168    80    77    1
   169    80    81    1
   170     4     3    2
   171   221   219    1
   172    23    22    1
   173    68    65    1
   174   220   219    1
   175    35    36    1
   176    35    32    1
   177   219   216    1
   178    64    65    1
   179    22    21   ar
   180    22    20   ar
   181    21    19   ar
   182    30    28    1
   183    65    66    1
   184    20    18   ar
   185    67    66    2
   186    32    33    1
   187    32    31    1
   188    33    34    2
   189    19    17   ar
   190   216   215    1
   191   216   217    1
   192    18    17   ar
   193    28    29    1
   194    28    25    1
   195    17    16    1
   196   218   217    2
   197    25    26    1
   198    25    24    1
   199    16    13    1
   200    26    27    2
   201    12    13    1
   202    13    14    1
   203    15    14    2
