@<TRIPOS>MOLECULE
tmp/2buaA05.pdb
 140 137 0 0 0
SMALL
GASTEIGER

@<TRIPOS>ATOM
      1  N          3.2630   18.2650    7.4200 N.3    87  ARG87      -0.1245
      2  CA         3.1390   19.4670    6.5980 C.3    87  ARG87       0.1563
      3  C          4.0060   20.6270    7.0800 C.2    87  ARG87       0.2260
      4  O          4.5900   21.3400    6.2650 O.2    87  ARG87      -0.2867
      5  CB         1.6760   19.9370    6.5210 C.3    87  ARG87       0.0307
      6  CG         1.4580   21.0850    5.5220 C.3    87  ARG87       0.0489
      7  CD         0.1220   21.8020    5.7170 C.3    87  ARG87       0.2205
      8  NE        -1.0490   20.9700    5.4220 N.pl3  87  ARG87      -0.0865
      9  CZ        -1.4630   20.6460    4.1970 C.cat  87  ARG87       0.5346
     10  NH1       -0.8060   21.0770    3.1290 N.pl3  87  ARG87       0.1354
     11  NH2       -2.5440   19.8960    4.0390 N.pl3  87  ARG87       0.1354
     12  N         -1.7360   19.8460   12.0140 N.3   167  GLU167     -0.1231
     13  CA        -2.5230   19.9640   10.7980 C.3   167  GLU167      0.1699
     14  C         -3.8060   20.7730   10.8770 C.2   167  GLU167      0.2592
     15  O         -4.0660   21.5920   10.0060 O.2   167  GLU167     -0.2718
     16  CB        -2.8420   18.5590   10.2760 C.3   167  GLU167      0.0402
     17  CG        -3.7120   18.5020    9.0180 C.3   167  GLU167      0.1161
     18  CD        -3.0870   19.1700    7.7940 C.2   167  GLU167      0.3649
     19  OE1       -1.8440   19.3080    7.7280 O.co2 167  GLU167     -0.2457
     20  OE2       -3.8560   19.5400    6.8840 O.co2 167  GLU167     -0.2457
     21  N         -4.5940   20.5710   11.9240 N.am  168  GLU168     -0.1979
     22  CA        -5.8850   21.2510   12.0280 C.3   168  GLU168      0.1602
     23  C         -6.0750   22.4210   12.9790 C.2   168  GLU168      0.2287
     24  O         -6.9530   23.2480   12.7460 O.2   168  GLU168     -0.2864
     25  CB        -6.9600   20.2160   12.3380 C.3   168  GLU168      0.0415
     26  CG        -6.8610   18.9710   11.4770 C.3   168  GLU168      0.1163
     27  CD        -7.1790   19.2390   10.0190 C.2   168  GLU168      0.3649
     28  OE1       -7.2310   20.4330    9.6340 O.co2 168  GLU168     -0.2457
     29  OE2       -7.3680   18.2530    9.2630 O.co2 168  GLU168     -0.2457
     30  N        -11.5190   28.5040    9.7410 N.3   319  PHE319     -0.1241
     31  CA       -10.9800   27.1680    9.9650 C.3   319  PHE319      0.1605
     32  C        -10.8050   27.0310   11.4740 C.2   319  PHE319      0.2264
     33  O        -10.7230   25.9320   12.0180 O.2   319  PHE319     -0.2867
     34  CB        -9.6350   27.0080    9.2580 C.3   319  PHE319      0.0534
     35  CG        -9.7550   26.7570    7.7900 C.ar  319  PHE319     -0.0203
     36  CD1      -10.1350   25.5050    7.3200 C.ar  319  PHE319     -0.0042
     37  CD2       -9.5050   27.7740    6.8690 C.ar  319  PHE319     -0.0042
     38  CE1      -10.2650   25.2650    5.9500 C.ar  319  PHE319     -0.0003
     39  CE2       -9.6320   27.5440    5.4950 C.ar  319  PHE319     -0.0003
     40  CZ       -10.0120   26.2900    5.0360 C.ar  319  PHE319     -0.0000
     41  N        -11.9680   22.1460   -5.8950 N.3   509  TYR509     -0.1241
     42  CA       -11.5320   21.9640   -4.5270 C.3   509  TYR509      0.1605
     43  C        -12.8770   21.9800   -3.7940 C.2   509  TYR509      0.2264
     44  O        -13.3680   20.9480   -3.3380 O.2   509  TYR509     -0.2867
     45  CB       -10.6390   23.1110   -4.0530 C.3   509  TYR509      0.0534
     46  CG       -10.2090   22.8740   -2.6270 C.ar  509  TYR509     -0.0201
     47  CD1       -9.5300   21.7030   -2.2680 C.ar  509  TYR509     -0.0009
     48  CD2      -10.5560   23.7640   -1.6220 C.ar  509  TYR509     -0.0009
     49  CE1       -9.2190   21.4350   -0.9300 C.ar  509  TYR509      0.0417
     50  CE2      -10.2530   23.5100   -0.2900 C.ar  509  TYR509      0.0417
     51  CZ        -9.5920   22.3530    0.0530 C.ar  509  TYR509      0.1957
     52  OH        -9.3180   22.1150    1.3780 O.3   509  TYR509     -0.2866
     53  N         -7.1940   16.1460   -2.6610 N.3   592  SER592     -0.1202
     54  CA        -7.7340   16.0990   -1.3090 C.3   592  SER592      0.2020
     55  C         -9.2390   16.2670   -1.3160 C.2   592  SER592      0.2618
     56  O         -9.9640   15.3720   -1.7560 O.2   592  SER592     -0.2717
     57  CB        -7.1050   17.2000   -0.4540 C.3   592  SER592      0.2103
     58  OG        -5.6920   17.1000   -0.4660 O.3   592  SER592     -0.2182
     59  N         -9.7040   17.4050   -0.8020 N.am  593  TYR593     -0.1975
     60  CA       -11.1300   17.6900   -0.7680 C.3   593  TYR593      0.1639
     61  C        -11.5860   17.8170   -2.2090 C.2   593  TYR593      0.2290
     62  O        -12.7070   17.4590   -2.5410 O.2   593  TYR593     -0.2864
     63  CB       -11.4390   18.9930   -0.0170 C.3   593  TYR593      0.0560
     64  CG       -12.9080   19.1030    0.3740 C.ar  593  TYR593     -0.0198
     65  CD1      -13.8850   19.4360   -0.5680 C.ar  593  TYR593     -0.0009
     66  CD2      -13.3310   18.7710    1.6680 C.ar  593  TYR593     -0.0009
     67  CE1      -15.2300   19.4240   -0.2370 C.ar  593  TYR593      0.0417
     68  CE2      -14.6830   18.7580    2.0060 C.ar  593  TYR593      0.0417
     69  CZ       -15.6200   19.0800    1.0480 C.ar  593  TYR593      0.1957
     70  OH       -16.9550   19.0200    1.3640 O.3   593  TYR593     -0.2866
     71  N        -10.5770   12.1010   -0.1760 N.3   618  VAL618     -0.1245
     72  CA       -11.2290   11.5650    1.0020 C.3   618  VAL618      0.1561
     73  C        -12.3300   10.7400    0.3230 C.2   618  VAL618      0.2260
     74  O        -12.8510   11.1310   -0.7220 O.2   618  VAL618     -0.2867
     75  CB       -11.8700   12.6950    1.8510 C.3   618  VAL618      0.0252
     76  CG1      -12.9570   12.1400    2.7510 C.3   618  VAL618      0.0019
     77  CG2      -10.8090   13.3720    2.6960 C.3   618  VAL618      0.0019
     78  N        -15.8800   10.0960    5.2380 N.3   621  TRP621     -0.1241
     79  CA       -15.5320   10.9990    6.3280 C.3   621  TRP621      0.1605
     80  C        -15.1410   10.3790    7.6580 C.2   621  TRP621      0.2264
     81  O        -14.4490   11.0120    8.4500 O.2   621  TRP621     -0.2867
     82  CB       -16.6460   12.0220    6.5280 C.3   621  TRP621      0.0550
     83  CG       -16.6750   13.0210    5.4230 C.ar  621  TRP621      0.0003
     84  CD1      -17.6360   13.1620    4.4610 C.ar  621  TRP621      0.0946
     85  CD2      -15.6350   13.9460    5.0890 C.ar  621  TRP621      0.0152
     86  NE1      -17.2530   14.1120    3.5420 N.ar  621  TRP621     -0.2442
     87  CE2      -16.0260   14.6070    3.9050 C.ar  621  TRP621      0.0810
     88  CE3      -14.4050   14.2750    5.6720 C.ar  621  TRP621      0.0012
     89  CZ2      -15.2260   15.5790    3.2900 C.ar  621  TRP621      0.0191
     90  CZ3      -13.6140   15.2350    5.0620 C.ar  621  TRP621      0.0001
     91  CH2      -14.0280   15.8750    3.8840 C.ar  621  TRP621      0.0015
     92  N        -11.3290   10.3470    7.9670 N.3   624  TYR624     -0.1241
     93  CA       -10.5280   11.5610    8.1450 C.3   624  TYR624      0.1605
     94  C        -10.3920   11.9520    9.6280 C.2   624  TYR624      0.2264
     95  O        -11.0840   11.4080   10.4840 O.2   624  TYR624     -0.2867
     96  CB       -11.1120   12.7120    7.3180 C.3   624  TYR624      0.0534
     97  CG       -10.0670   13.7550    6.9740 C.ar  624  TYR624     -0.0201
     98  CD1       -8.8700   13.3890    6.3440 C.ar  624  TYR624     -0.0009
     99  CD2      -10.2350   15.0940    7.3410 C.ar  624  TYR624     -0.0009
    100  CE1       -7.8640   14.3310    6.1000 C.ar  624  TYR624      0.0417
    101  CE2       -9.2300   16.0370    7.1000 C.ar  624  TYR624      0.0417
    102  CZ        -8.0510   15.6440    6.4840 C.ar  624  TYR624      0.1957
    103  OH        -7.0530   16.5560    6.2690 O.3   624  TYR624     -0.2866
    104  N        -11.0450   18.3410   11.8790 N.3   628  TYR628     -0.1241
    105  CA       -11.5960   18.8770   10.6470 C.3   628  TYR628      0.1605
    106  C        -12.9780   18.3200   10.3260 C.2   628  TYR628      0.2264
    107  O        -13.9090   19.0680   10.0390 O.2   628  TYR628     -0.2867
    108  CB       -10.6400   18.5960    9.4850 C.3   628  TYR628      0.0534
    109  CG       -11.1330   19.0980    8.1440 C.ar  628  TYR628     -0.0201
    110  CD1      -11.9960   18.3310    7.3600 C.ar  628  TYR628     -0.0009
    111  CD2      -10.7440   20.3440    7.6670 C.ar  628  TYR628     -0.0009
    112  CE1      -12.4560   18.7950    6.1320 C.ar  628  TYR628      0.0417
    113  CE2      -11.1960   20.8200    6.4480 C.ar  628  TYR628      0.0417
    114  CZ       -12.0520   20.0410    5.6850 C.ar  628  TYR628      0.1957
    115  OH       -12.4930   20.5250    4.4760 O.3   628  TYR628     -0.2866
    116  N         -1.8350   12.1560    5.9240 N.3   672  ASN672     -0.1225
    117  CA        -3.0050   13.0240    6.0360 C.3   672  ASN672      0.1785
    118  C         -4.2950   12.3280    5.5770 C.2   672  ASN672      0.2597
    119  O         -5.1570   11.9970    6.3970 O.2   672  ASN672     -0.2718
    120  CB        -2.7550   14.2760    5.2110 C.3   672  ASN672      0.1169
    121  CG        -3.6710   15.4070    5.5840 C.2   672  ASN672      0.2627
    122  OD1       -4.8840   15.2300    5.7020 O.2   672  ASN672     -0.2716
    123  ND2       -3.1010   16.5890    5.7530 N.am  672  ASN672     -0.0877
    124  N         -4.4350   12.1350    4.2640 N.am  673  VAL673     -0.1980
    125  CA        -5.5740   11.4200    3.7130 C.3   673  VAL673      0.1595
    126  C         -4.9650   10.0410    3.4860 C.2   673  VAL673      0.2287
    127  O         -4.3350    9.8010    2.4720 O.2   673  VAL673     -0.2864
    128  CB        -6.0270   12.0100    2.3630 C.3   673  VAL673      0.0276
    129  CG1       -7.2260   11.2400    1.8440 C.3   673  VAL673      0.0022
    130  CG2       -6.3760   13.4880    2.5160 C.3   673  VAL673      0.0022
    131  N          1.2980   13.1910    1.4450 N.3   702  HIS702     -0.1241
    132  CA         0.1540   13.9400    0.9410 C.3   702  HIS702      0.1621
    133  C          0.4430   14.8870   -0.2160 C.2   702  HIS702      0.2264
    134  O         -0.3990   15.0890   -1.0980 O.2   702  HIS702     -0.2867
    135  CB        -0.5300   14.7140    2.0710 C.3   702  HIS702      0.0745
    136  CG        -1.9010   15.1900    1.7060 C.ar  702  HIS702      0.0817
    137  ND1       -2.8090   14.3860    1.0520 N.ar  702  HIS702     -0.2268
    138  CD2       -2.5070   16.3890    1.8710 C.ar  702  HIS702      0.1154
    139  CE1       -3.9150   15.0720    0.8250 C.ar  702  HIS702      0.1986
    140  NE2       -3.7580   16.2900    1.3120 N.ar  702  HIS702     -0.2212
@<TRIPOS>BOND
     1    41    42    1
     2    42    45    1
     3    42    43    1
     4    45    46    1
     5    43    44    2
     6    53    54    1
     7    46    47   ar
     8    46    48   ar
     9    62    61    2
    10    47    49   ar
    11    61    60    1
    12    56    55    2
    13    48    50   ar
    14    55    54    1
    15    55    59   am
    16    54    57    1
    17   134   133    2
    18    49    51   ar
    19    59    60    1
    20    60    63    1
    21    74    73    2
    22    65    67   ar
    23    65    64   ar
    24    58    57    1
    25    50    51   ar
    26    67    69   ar
    27   133   132    1
    28    71    72    1
    29    63    64    1
    30    51    52    1
    31    73    72    1
    32    64    66   ar
    33   139   137   ar
    34   139   140   ar
    35   132   131    1
    36   132   135    1
    37    72    75    1
    38    69    70    1
    39    69    68   ar
    40   137   136   ar
    41   140   138   ar
    42    66    68   ar
    43   136   138   ar
    44   136   135    1
    45   129   128    1
    46    75    77    1
    47    75    76    1
    48   128   130    1
    49   128   125    1
    50   127   126    2
    51    10     9    1
    52    89    91   ar
    53    89    87   ar
    54   126   125    1
    55    86    87   ar
    56    86    84   ar
    57   125   124    1
    58    91    90   ar
    59    87    85   ar
    60    11     9    1
    61     9     8    2
    62   124   118   am
    63    84    83   ar
    64   115   114    1
    65    40    39   ar
    66    40    38   ar
    67    90    88   ar
    68    85    83   ar
    69    85    88   ar
    70   120   121    1
    71   120   117    1
    72    78    79    1
    73     8     7    1
    74    83    82    1
    75    39    37   ar
    76     6     7    1
    77     6     5    1
    78   118   117    1
    79   118   119    2
    80   121   122    2
    81   121   123   am
    82   114   112   ar
    83   114   113   ar
    84   116   117    1
    85    38    36   ar
    86   100    98   ar
    87   100   102   ar
    88   112   110   ar
    89     4     3    2
    90   103   102    1
    91    79    82    1
    92    79    80    1
    93    98    97   ar
    94   113   111   ar
    95   102   101   ar
    96     5     2    1
    97     2     3    1
    98     2     1    1
    99    37    35   ar
   100    20    18   ar
   101    97    96    1
   102    97    99   ar
   103   101    99   ar
   104    96    93    1
   105    36    35   ar
   106   110   109   ar
   107    80    81    2
   108   111   109   ar
   109    19    18   ar
   110    35    34    1
   111    18    17    1
   112    92    93    1
   113   109   108    1
   114    93    94    1
   115    17    16    1
   116    34    31    1
   117    29    27   ar
   118   108   105    1
   119    94    95    2
   120    28    27   ar
   121    30    31    1
   122    31    32    1
   123    15    14    2
   124    27    26    1
   125   107   106    2
   126    16    13    1
   127   106   105    1
   128   105   104    1
   129    13    14    1
   130    13    12    1
   131    14    21   am
   132    32    33    2
   133    26    25    1
   134    21    22    1
   135    22    25    1
   136    22    23    1
   137    24    23    2
