@<TRIPOS>MOLECULE
tmp/2bubA03.pdb
 182 179 0 0 0
SMALL
GASTEIGER

@<TRIPOS>ATOM
      1  N         50.4190   61.0590   33.9660 N.3    87  ARG87      -0.1245
      2  CA        51.0360   60.0530   33.0810 C.3    87  ARG87       0.1563
      3  C         50.9960   60.4140   31.6000 C.2    87  ARG87       0.2260
      4  O         51.9060   60.0390   30.8450 O.2    87  ARG87      -0.2867
      5  CB        50.4860   58.6280   33.2990 C.3    87  ARG87       0.0307
      6  CG        51.3990   57.5490   32.7240 C.3    87  ARG87       0.0489
      7  CD        50.7210   56.2450   32.4030 C.3    87  ARG87       0.2205
      8  NE        50.3980   55.4410   33.5880 N.pl3  87  ARG87      -0.0865
      9  CZ        51.2390   54.5890   34.1710 C.cat  87  ARG87       0.5346
     10  NH1       52.4580   54.4570   33.6980 N.pl3  87  ARG87       0.1354
     11  NH2       50.8720   53.8980   35.2520 N.pl3  87  ARG87       0.1354
     12  N         44.1530   58.3200   33.8560 N.3   167  GLU167     -0.1231
     13  CA        44.8960   57.1140   34.1410 C.3   167  GLU167      0.1699
     14  C         44.1090   55.8500   33.7880 C.2   167  GLU167      0.2592
     15  O         44.5970   55.0260   33.0110 O.2   167  GLU167     -0.2718
     16  CB        45.3600   57.0960   35.6210 C.3   167  GLU167      0.0402
     17  CG        45.9240   55.7740   36.1520 C.3   167  GLU167      0.1161
     18  CD        47.3250   55.4770   35.6530 C.2   167  GLU167      0.3649
     19  OE1       47.6100   55.7910   34.4850 O.co2 167  GLU167     -0.2457
     20  OE2       48.1540   54.9190   36.4010 O.co2 167  GLU167     -0.2457
     21  N         42.9100   55.7120   34.3520 N.am  168  GLU168     -0.1979
     22  CA        42.1690   54.4410   34.3410 C.3   168  GLU168      0.1602
     23  C         41.2380   54.2070   33.1180 C.2   168  GLU168      0.2287
     24  O         40.9040   53.0530   32.8060 O.2   168  GLU168     -0.2864
     25  CB        41.3330   54.2690   35.6210 C.3   168  GLU168      0.0415
     26  CG        42.0760   54.1960   36.9530 C.3   168  GLU168      0.1163
     27  CD        43.3990   53.4640   36.8870 C.2   168  GLU168      0.3649
     28  OE1       43.7350   52.9800   35.7960 O.co2 168  GLU168     -0.2457
     29  OE2       44.1150   53.3630   37.9150 O.co2 168  GLU168     -0.2457
     30  N         43.4880   56.7210   29.1890 N.3   171  SER171     -0.1217
     31  CA        44.9170   56.7290   29.0750 C.3   171  SER171      0.1889
     32  C         45.0720   57.8360   28.0840 C.2   171  SER171      0.2288
     33  O         45.4200   57.5700   26.9350 O.2   171  SER171     -0.2866
     34  CB        45.4020   55.4100   28.4540 C.3   171  SER171      0.2089
     35  OG        45.4400   54.3500   29.4130 O.3   171  SER171     -0.2183
     36  N         40.8960   45.6360   29.6650 N.3   319  PHE319     -0.1227
     37  CA        40.8780   46.6330   30.7340 C.3   319  PHE319      0.1736
     38  C         39.6220   47.4530   30.6070 C.2   319  PHE319      0.2595
     39  O         39.3110   48.2860   31.4700 O.2   319  PHE319     -0.2718
     40  CB        42.1110   47.4990   30.7110 C.3   319  PHE319      0.0547
     41  CG        43.3690   46.7520   31.0460 C.ar  319  PHE319     -0.0202
     42  CD1       43.8400   46.7100   32.3520 C.ar  319  PHE319     -0.0042
     43  CD2       44.0730   46.0720   30.0550 C.ar  319  PHE319     -0.0042
     44  CE1       45.0140   46.0290   32.6640 C.ar  319  PHE319     -0.0003
     45  CE2       45.2220   45.3810   30.3450 C.ar  319  PHE319     -0.0003
     46  CZ        45.7030   45.3610   31.6530 C.ar  319  PHE319     -0.0000
     47  N         38.8760   47.1880   29.5370 N.am  320  ARG320     -0.1980
     48  CA        37.6270   47.8770   29.2950 C.3   320  ARG320      0.1597
     49  C         37.0710   47.3320   28.0080 C.2   320  ARG320      0.2287
     50  O         37.7900   46.6970   27.2590 O.2   320  ARG320     -0.2864
     51  CB        37.8470   49.4030   29.2050 C.3   320  ARG320      0.0334
     52  CG        37.8100   49.9950   27.7990 C.3   320  ARG320      0.0492
     53  CD        38.7390   51.1700   27.5820 C.3   320  ARG320      0.2205
     54  NE        40.0370   50.7120   27.0940 N.pl3 320  ARG320     -0.0865
     55  CZ        41.1620   50.6380   27.8340 C.cat 320  ARG320      0.5346
     56  NH1       41.1630   51.0160   29.1150 N.pl3 320  ARG320      0.1354
     57  NH2       42.2950   50.1820   27.2860 N.pl3 320  ARG320      0.1354
     58  N         55.3370   41.5510   37.4780 N.3   509  TYR509     -0.1241
     59  CA        54.3230   42.6110   37.5200 C.3   509  TYR509      0.1605
     60  C         53.0000   41.9470   37.8930 C.2   509  TYR509      0.2264
     61  O         52.5310   42.1280   39.0080 O.2   509  TYR509     -0.2867
     62  CB        54.2340   43.3830   36.2110 C.3   509  TYR509      0.0534
     63  CG        53.1980   44.4910   36.1990 C.ar  509  TYR509     -0.0201
     64  CD1       53.5440   45.8080   36.5050 C.ar  509  TYR509     -0.0009
     65  CD2       51.8790   44.2220   35.8590 C.ar  509  TYR509     -0.0009
     66  CE1       52.5850   46.8310   36.4830 C.ar  509  TYR509      0.0417
     67  CE2       50.9320   45.1990   35.8290 C.ar  509  TYR509      0.0417
     68  CZ        51.2770   46.5120   36.1360 C.ar  509  TYR509      0.1957
     69  OH        50.2950   47.4860   36.0900 O.3   509  TYR509     -0.2866
     70  N         57.7070   46.4390   40.4960 N.3   591  TRP591     -0.1227
     71  CA        57.3920   47.8610   40.4680 C.3   591  TRP591      0.1737
     72  C         55.8900   48.0770   40.2320 C.2   591  TRP591      0.2596
     73  O         55.3730   47.6710   39.1970 O.2   591  TRP591     -0.2718
     74  CB        58.1890   48.4940   39.3350 C.3   591  TRP591      0.0564
     75  CG        58.2460   49.9720   39.3490 C.ar  591  TRP591      0.0003
     76  CD1       57.1940   50.8480   39.4920 C.ar  591  TRP591      0.0946
     77  CD2       59.4200   50.7830   39.1850 C.ar  591  TRP591      0.0152
     78  NE1       57.6500   52.1450   39.4470 N.ar  591  TRP591     -0.2442
     79  CE2       59.0120   52.1350   39.2590 C.ar  591  TRP591      0.0810
     80  CE3       60.7840   50.5030   38.9970 C.ar  591  TRP591      0.0012
     81  CZ2       59.9100   53.1910   39.1440 C.ar  591  TRP591      0.0191
     82  CZ3       61.6640   51.5440   38.8810 C.ar  591  TRP591      0.0001
     83  CH2       61.2250   52.8780   38.9580 C.ar  591  TRP591      0.0015
     84  N         55.1930   48.7080   41.1800 N.am  592  SER592     -0.1938
     85  CA        53.7470   48.9840   41.0710 C.3   592  SER592      0.2055
     86  C         52.8930   47.7930   41.5180 C.2   592  SER592      0.2643
     87  O         53.0950   47.3060   42.6350 O.2   592  SER592     -0.2714
     88  CB        53.3710   49.4540   39.6810 C.3   592  SER592      0.2130
     89  OG        52.7370   50.7100   39.7670 O.3   592  SER592     -0.2179
     90  N         51.9500   47.3050   40.6980 N.am  593  TYR593     -0.1973
     91  CA        51.3330   45.9980   41.0130 C.3   593  TYR593      0.1639
     92  C         52.4960   45.0530   41.3100 C.2   593  TYR593      0.2290
     93  O         52.4170   44.1890   42.1560 O.2   593  TYR593     -0.2864
     94  CB        50.4440   45.4390   39.8780 C.3   593  TYR593      0.0560
     95  CG        49.4210   44.4240   40.3600 C.ar  593  TYR593     -0.0198
     96  CD1       49.8260   43.1760   40.8640 C.ar  593  TYR593     -0.0009
     97  CD2       48.0650   44.7100   40.3480 C.ar  593  TYR593     -0.0009
     98  CE1       48.8870   42.2110   41.3460 C.ar  593  TYR593      0.0417
     99  CE2       47.1140   43.7690   40.8240 C.ar  593  TYR593      0.0417
    100  CZ        47.5390   42.5330   41.3310 C.ar  593  TYR593      0.1957
    101  OH        46.6360   41.6370   41.8220 O.3   593  TYR593     -0.2866
    102  N         51.4820   48.9810   45.6740 N.3   618  VAL618     -0.1245
    103  CA        50.2690   49.1180   46.4720 C.3   618  VAL618      0.1561
    104  C         50.4550   48.3000   47.7710 C.2   618  VAL618      0.2260
    105  O         51.4400   47.5660   47.9010 O.2   618  VAL618     -0.2867
    106  CB        49.0210   48.6410   45.7240 C.3   618  VAL618      0.0252
    107  CG1       47.7900   48.8830   46.5670 C.3   618  VAL618      0.0019
    108  CG2       48.9200   49.3520   44.3920 C.3   618  VAL618      0.0019
    109  N         44.1810   47.6380   49.4040 N.3   621  TRP621     -0.1241
    110  CA        43.4860   48.1100   48.1890 C.3   621  TRP621      0.1605
    111  C         42.5440   49.3140   48.3760 C.2   621  TRP621      0.2264
    112  O         42.2200   49.9890   47.4160 O.2   621  TRP621     -0.2867
    113  CB        42.7830   46.9610   47.4490 C.3   621  TRP621      0.0550
    114  CG        43.7390   46.1370   46.6290 C.ar  621  TRP621      0.0003
    115  CD1       44.1300   44.8400   46.8600 C.ar  621  TRP621      0.0946
    116  CD2       44.4410   46.5560   45.4490 C.ar  621  TRP621      0.0152
    117  NE1       45.0210   44.4320   45.8920 N.ar  621  TRP621     -0.2442
    118  CE2       45.2310   45.4640   45.0160 C.ar  621  TRP621      0.0810
    119  CE3       44.4820   47.7470   44.7150 C.ar  621  TRP621      0.0012
    120  CZ2       46.0400   45.5250   43.8940 C.ar  621  TRP621      0.0191
    121  CZ3       45.2840   47.8100   43.6020 C.ar  621  TRP621      0.0001
    122  CH2       46.0550   46.7010   43.1970 C.ar  621  TRP621      0.0015
    123  N         43.8370   52.7020   46.9860 N.3   624  TYR624     -0.1241
    124  CA        44.0710   52.9400   45.5440 C.3   624  TYR624      0.1605
    125  C         42.8170   53.4790   44.8490 C.2   624  TYR624      0.2264
    126  O         41.7470   53.5710   45.4660 O.2   624  TYR624     -0.2867
    127  CB        44.5760   51.6660   44.8320 C.3   624  TYR624      0.0534
    128  CG        45.2220   51.9580   43.4900 C.ar  624  TYR624     -0.0201
    129  CD1       46.2280   52.8990   43.3910 C.ar  624  TYR624     -0.0009
    130  CD2       44.8210   51.3100   42.3320 C.ar  624  TYR624     -0.0009
    131  CE1       46.8320   53.1900   42.1960 C.ar  624  TYR624      0.0417
    132  CE2       45.4040   51.6130   41.1100 C.ar  624  TYR624      0.0417
    133  CZ        46.4180   52.5730   41.0480 C.ar  624  TYR624      0.1957
    134  OH        47.0550   52.9100   39.8560 O.3   624  TYR624     -0.2866
    135  N         40.0740   51.5570   38.7520 N.3   628  TYR628     -0.1241
    136  CA        40.9060   50.3640   38.5670 C.3   628  TYR628      0.1605
    137  C         40.5630   49.2750   39.5620 C.2   628  TYR628      0.2264
    138  O         40.2300   48.1620   39.1730 O.2   628  TYR628     -0.2867
    139  CB        42.3680   50.7350   38.7110 C.3   628  TYR628      0.0534
    140  CG        43.3540   49.6020   38.5940 C.ar  628  TYR628     -0.0201
    141  CD1       43.5670   48.7060   39.6530 C.ar  628  TYR628     -0.0009
    142  CD2       44.1140   49.4460   37.4430 C.ar  628  TYR628     -0.0009
    143  CE1       44.5080   47.6660   39.5540 C.ar  628  TYR628      0.0417
    144  CE2       45.0390   48.4130   37.3210 C.ar  628  TYR628      0.0417
    145  CZ        45.2370   47.5300   38.3740 C.ar  628  TYR628      0.1957
    146  OH        46.1810   46.5350   38.2290 O.3   628  TYR628     -0.2866
    147  N         37.0170   47.6130   39.5910 N.3   631  ARG631     -0.1245
    148  CA        36.8610   46.7040   38.4590 C.3   631  ARG631      0.1563
    149  C         37.0920   45.2570   38.9320 C.2   631  ARG631      0.2260
    150  O         36.5440   44.2930   38.3950 O.2   631  ARG631     -0.2867
    151  CB        37.9010   47.0520   37.3920 C.3   631  ARG631      0.0307
    152  CG        37.4030   47.0600   35.9630 C.3   631  ARG631      0.0489
    153  CD        38.4430   46.6720   34.9390 C.3   631  ARG631      0.2205
    154  NE        39.5700   47.5920   34.9030 N.pl3 631  ARG631     -0.0865
    155  CZ        39.4910   48.8790   34.5540 C.cat 631  ARG631      0.5346
    156  NH1       38.3200   49.4190   34.2120 N.pl3 631  ARG631      0.1354
    157  NH2       40.5930   49.6220   34.5360 N.pl3 631  ARG631      0.1354
    158  N         50.2040   58.6070   41.8640 N.3   672  ASN672     -0.1225
    159  CA        49.5350   57.3850   41.4490 C.3   672  ASN672      0.1785
    160  C         49.2820   56.4090   42.6170 C.2   672  ASN672      0.2597
    161  O         48.1270   56.2020   43.0320 O.2   672  ASN672     -0.2718
    162  CB        50.3740   56.7370   40.3610 C.3   672  ASN672      0.1169
    163  CG        49.5920   55.7240   39.5280 C.2   672  ASN672      0.2627
    164  OD1       49.8920   55.5060   38.3330 O.2   672  ASN672     -0.2716
    165  ND2       48.6110   55.0940   40.1510 N.am  672  ASN672     -0.0877
    166  N         50.3690   55.8390   43.1430 N.am  673  VAL673     -0.1980
    167  CA        50.3480   54.9920   44.3250 C.3   673  VAL673      0.1595
    168  C         50.9460   55.8670   45.3900 C.2   673  VAL673      0.2287
    169  O         52.1490   56.1370   45.3570 O.2   673  VAL673     -0.2864
    170  CB        51.2950   53.7410   44.1850 C.3   673  VAL673      0.0276
    171  CG1       51.4630   53.0210   45.5160 C.3   673  VAL673      0.0022
    172  CG2       50.8130   52.7950   43.1340 C.3   673  VAL673      0.0022
    173  N         55.6300   58.5770   40.0780 N.3   702  HIS702     -0.1241
    174  CA        55.4220   57.1320   40.1200 C.3   702  HIS702      0.1621
    175  C         56.4970   56.3530   39.3860 C.2   702  HIS702      0.2264
    176  O         56.8240   55.2390   39.7750 O.2   702  HIS702     -0.2867
    177  CB        54.0280   56.6900   39.6490 C.3   702  HIS702      0.0745
    178  CG        53.7360   55.2430   39.9310 C.ar  702  HIS702      0.0817
    179  ND1       54.0570   54.6340   41.1290 N.ar  702  HIS702     -0.2268
    180  CD2       53.1710   54.2770   39.1630 C.ar  702  HIS702      0.1154
    181  CE1       53.6830   53.3660   41.0910 C.ar  702  HIS702      0.1986
    182  NE2       53.1490   53.1240   39.9070 N.ar  702  HIS702     -0.2212
@<TRIPOS>BOND
     1    33    32    2
     2    54    53    1
     3    54    55    2
     4    50    49    2
     5    57    55    1
     6    53    52    1
     7    52    51    1
     8    55    56    1
     9    49    48    1
    10    32    31    1
    11    34    31    1
    12    34    35    1
    13    31    30    1
    14    51    48    1
    15    48    47    1
    16    47    38   am
    17    36    37    1
    18    43    45   ar
    19    43    41   ar
    20    45    46   ar
    21    38    37    1
    22    38    39    2
    23    40    37    1
    24    40    41    1
    25     4     3    2
    26    41    42   ar
    27     3     2    1
    28    46    44   ar
    29    42    44   ar
    30     7     6    1
    31     7     8    1
    32     6     5    1
    33    24    23    2
    34    15    14    2
    35     2     5    1
    36     2     1    1
    37    23    22    1
    38     8     9    2
    39    10     9    1
    40    14    13    1
    41    14    21   am
    42    12    13    1
    43    13    16    1
    44     9    11    1
    45   156   155    1
    46    22    21    1
    47    22    25    1
    48    19    18   ar
    49   157   155    1
    50   155   154    2
    51   154   153    1
    52   153   152    1
    53    25    26    1
    54    16    17    1
    55    18    17    1
    56    18    20   ar
    57    28    27   ar
    58    67    65   ar
    59    67    68   ar
    60    65    63   ar
    61   152   151    1
    62    69    68    1
    63    68    66   ar
    64    63    62    1
    65    63    64   ar
    66    62    59    1
    67    66    64   ar
    68    27    26    1
    69    27    29   ar
    70   144   142   ar
    71   144   145   ar
    72   151   148    1
    73   142   140   ar
    74    58    59    1
    75    59    60    1
    76    60    61    2
    77   146   145    1
    78   164   163    2
    79   145   143   ar
    80   150   149    2
    81   148   149    1
    82   148   147    1
    83   136   139    1
    84   136   135    1
    85   136   137    1
    86   140   139    1
    87   140   141   ar
    88    82    83   ar
    89    82    80   ar
    90    83    81   ar
    91    80    77   ar
    92    81    79   ar
    93   180   182   ar
    94   180   178   ar
    95   138   137    2
    96    77    79   ar
    97    77    75   ar
    98    73    72    2
    99    79    78   ar
   100    74    75    1
   101    74    71    1
   102    75    76   ar
   103   175   176    2
   104   175   174    1
   105    78    76   ar
   106   163   165   am
   107   163   162    1
   108   143   141   ar
   109   177   178    1
   110   177   174    1
   111    88    89    1
   112    88    85    1
   113   134   133    1
   114    94    95    1
   115    94    91    1
   116   182   181   ar
   117   178   179   ar
   118   173   174    1
   119    72    71    1
   120    72    84   am
   121    97    95   ar
   122    97    99   ar
   123    95    96   ar
   124   162   159    1
   125    71    70    1
   126    90    91    1
   127    90    86   am
   128    99   100   ar
   129    96    98   ar
   130    91    92    1
   131   133   132   ar
   132   133   131   ar
   133    85    84    1
   134    85    86    1
   135   181   179   ar
   136   132   130   ar
   137    92    93    2
   138   100    98   ar
   139   100   101    1
   140   159   158    1
   141   159   160    1
   142    86    87    2
   143   131   129   ar
   144   130   128   ar
   145   160   161    2
   146   160   166   am
   147   172   170    1
   148   166   167    1
   149   122   121   ar
   150   122   120   ar
   151   129   128   ar
   152   128   127    1
   153   121   119   ar
   154   120   118   ar
   155   170   167    1
   156   170   171    1
   157   167   168    1
   158   108   106    1
   159   119   116   ar
   160   127   124    1
   161   125   126    2
   162   125   124    1
   163   118   116   ar
   164   118   117   ar
   165   169   168    2
   166   116   114   ar
   167   124   123    1
   168   102   103    1
   169   106   103    1
   170   106   107    1
   171   117   115   ar
   172   103   104    1
   173   114   115   ar
   174   114   113    1
   175   112   111    2
   176   113   110    1
   177   104   105    2
   178   110   111    1
   179   110   109    1
