@<TRIPOS>MOLECULE
tmp/2bucC06.pdb
 191 186 0 0 0
SMALL
GASTEIGER

@<TRIPOS>ATOM
      1  N         13.6080    5.5460   69.4050 N.3    87  ARG87      -0.1231
      2  CA        13.8180    6.3840   70.5870 C.3    87  ARG87       0.1694
      3  C         12.9490    7.6410   70.6020 C.2    87  ARG87       0.2592
      4  O         12.3640    7.9730   71.6320 O.2    87  ARG87      -0.2718
      5  CB        15.2920    6.7560   70.7500 C.3    87  ARG87       0.0321
      6  CG        15.6780    7.0780   72.1840 C.3    87  ARG87       0.0489
      7  CD        17.0220    7.7630   72.3320 C.3    87  ARG87       0.2205
      8  NE        18.1320    6.8100   72.3020 N.pl3  87  ARG87      -0.0865
      9  CZ        18.6010    6.1530   73.3620 C.cat  87  ARG87       0.5346
     10  NH1       18.0610    6.3270   74.5640 N.pl3  87  ARG87       0.1354
     11  NH2       19.6180    5.3150   73.2180 N.pl3  87  ARG87       0.1354
     12  N         12.8670    8.3220   69.4600 N.am   88  HIS88      -0.1976
     13  CA        12.1220    9.5780   69.3430 C.3    88  HIS88       0.1656
     14  C         10.9660    9.4940   68.3470 C.2    88  HIS88       0.2291
     15  O         10.0230   10.2910   68.4130 O.2    88  HIS88      -0.2864
     16  CB        13.0560   10.7240   68.9440 C.3    88  HIS88       0.0771
     17  CG        14.3690   10.7130   69.6600 C.ar   88  HIS88       0.0820
     18  ND1       14.5120   11.1560   70.9580 N.ar   88  HIS88      -0.2267
     19  CD2       15.5990   10.3100   69.2610 C.ar   88  HIS88       0.1154
     20  CE1       15.7750   11.0270   71.3270 C.ar   88  HIS88       0.1986
     21  NE2       16.4550   10.5160   70.3150 N.ar   88  HIS88      -0.2212
     22  N         18.8900    8.3710   65.8750 N.3   167  GLU167     -0.1231
     23  CA        19.5960    7.9830   67.0880 C.3   167  GLU167      0.1699
     24  C         20.8860    8.7670   67.3140 C.2   167  GLU167      0.2592
     25  O         21.1430    9.2240   68.4300 O.2   167  GLU167     -0.2718
     26  CB        19.8690    6.4700   67.0800 C.3   167  GLU167      0.0402
     27  CG        20.6930    5.9490   68.2540 C.3   167  GLU167      0.1161
     28  CD        19.9290    5.8870   69.5740 C.2   167  GLU167      0.3649
     29  OE1       18.6890    6.0800   69.5960 O.co2 167  GLU167     -0.2457
     30  OE2       20.5830    5.6320   70.6080 O.co2 167  GLU167     -0.2457
     31  N         21.6760    8.9480   66.2570 N.am  168  GLU168     -0.1966
     32  CA        23.0660    9.3870   66.4200 C.3   168  GLU168      0.1733
     33  C         23.4090   10.7990   65.9540 C.2   168  GLU168      0.2616
     34  O         24.4750   11.3170   66.2870 O.2   168  GLU168     -0.2715
     35  CB        24.0200    8.3860   65.7580 C.3   168  GLU168      0.0429
     36  CG        23.7780    6.9380   66.1470 C.3   168  GLU168      0.1163
     37  CD        24.1750    6.6320   67.5770 C.2   168  GLU168      0.3649
     38  OE1       24.5310    7.5690   68.3240 O.co2 168  GLU168     -0.2457
     39  OE2       24.1360    5.4450   67.9570 O.co2 168  GLU168     -0.2457
     40  N         22.5220   11.4210   65.1860 N.am  169  VAL169     -0.1977
     41  CA        22.8370   12.7080   64.5760 C.3   169  VAL169      0.1596
     42  C         21.9180   13.8140   65.0770 C.2   169  VAL169      0.2287
     43  O         22.3770   14.7820   65.6800 O.2   169  VAL169     -0.2864
     44  CB        22.7910   12.6360   63.0210 C.3   169  VAL169      0.0276
     45  CG1       23.2230   13.9480   62.4120 C.3   169  VAL169      0.0022
     46  CG2       23.6710   11.5140   62.5000 C.3   169  VAL169      0.0022
     47  N         19.1120   13.3510   67.0350 N.3   171  SER171     -0.1217
     48  CA        18.4580   13.0230   68.3040 C.3   171  SER171      0.1889
     49  C         16.9640   13.3820   68.2620 C.2   171  SER171      0.2288
     50  O         16.3790   13.8150   69.2610 O.2   171  SER171     -0.2866
     51  CB        19.1700   13.6870   69.4850 C.3   171  SER171      0.2089
     52  OG        19.4170   12.7370   70.5020 O.3   171  SER171     -0.2183
     53  N         28.6480   14.7790   71.0210 N.3   319  PHE319     -0.1227
     54  CA        28.1470   13.6980   70.1750 C.3   319  PHE319      0.1736
     55  C         27.9520   14.2170   68.7480 C.2   319  PHE319      0.2595
     56  O         27.8980   13.4480   67.7850 O.2   319  PHE319     -0.2718
     57  CB        26.8460   13.1290   70.7440 C.3   319  PHE319      0.0547
     58  CG        27.0160   12.4400   72.0730 C.ar  319  PHE319     -0.0202
     59  CD1       27.3140   11.0810   72.1320 C.ar  319  PHE319     -0.0042
     60  CD2       26.8860   13.1520   73.2650 C.ar  319  PHE319     -0.0042
     61  CE1       27.4790   10.4410   73.3550 C.ar  319  PHE319     -0.0003
     62  CE2       27.0500   12.5220   74.4940 C.ar  319  PHE319     -0.0003
     63  CZ        27.3480   11.1630   74.5410 C.ar  319  PHE319     -0.0000
     64  N         27.8460   15.5380   68.6430 N.am  320  ARG320     -0.1980
     65  CA        27.8200   16.2550   67.3790 C.3   320  ARG320      0.1597
     66  C         28.3690   17.6560   67.6590 C.2   320  ARG320      0.2287
     67  O         28.3590   18.0960   68.8130 O.2   320  ARG320     -0.2864
     68  CB        26.3950   16.3170   66.8000 C.3   320  ARG320      0.0334
     69  CG        25.2980   16.7230   67.7860 C.3   320  ARG320      0.0492
     70  CD        24.3810   17.8260   67.2750 C.3   320  ARG320      0.2205
     71  NE        22.9650   17.4730   67.3910 N.pl3 320  ARG320     -0.0865
     72  CZ        22.2070   17.7210   68.4580 C.cat 320  ARG320      0.5346
     73  NH1       22.7170   18.3280   69.5230 N.pl3 320  ARG320      0.1354
     74  NH2       20.9310   17.3580   68.4630 N.pl3 320  ARG320      0.1354
     75  N         28.0900    3.4930   83.4810 N.3   509  TYR509     -0.1241
     76  CA        27.7870    3.7240   82.0790 C.3   509  TYR509      0.1605
     77  C         29.1150    3.8610   81.3360 C.2   509  TYR509      0.2264
     78  O         29.4400    3.0290   80.4870 O.2   509  TYR509     -0.2867
     79  CB        26.9050    4.9610   81.8950 C.3   509  TYR509      0.0534
     80  CG        26.3950    5.1310   80.4820 C.ar  509  TYR509     -0.0201
     81  CD1       25.4260    4.2720   79.9620 C.ar  509  TYR509     -0.0009
     82  CD2       26.8880    6.1440   79.6600 C.ar  509  TYR509     -0.0009
     83  CE1       24.9570    4.4250   78.6630 C.ar  509  TYR509      0.0417
     84  CE2       26.4250    6.3050   78.3600 C.ar  509  TYR509      0.0417
     85  CZ        25.4600    5.4430   77.8690 C.ar  509  TYR509      0.1957
     86  OH        24.9970    5.5900   76.5840 O.3   509  TYR509     -0.2866
     87  N         30.0670   11.1310   78.2960 N.3   514  SER514     -0.1217
     88  CA        28.9730   10.8960   79.2330 C.3   514  SER514      0.1889
     89  C         29.3450   11.2340   80.6780 C.2   514  SER514      0.2288
     90  O         30.5240   11.3770   81.0200 O.2   514  SER514     -0.2866
     91  CB        28.4640    9.4520   79.1240 C.3   514  SER514      0.2089
     92  OG        29.1970    8.5760   79.9660 O.3   514  SER514     -0.2183
     93  N         23.2120   -0.6310   78.3710 N.3   592  SER592     -0.1202
     94  CA        23.7940   -0.2330   77.0790 C.3   592  SER592      0.2020
     95  C         25.3190   -0.2400   77.1140 C.2   592  SER592      0.2618
     96  O         25.9290   -1.2980   77.2630 O.2   592  SER592     -0.2717
     97  CB        23.2730    1.1340   76.6060 C.3   592  SER592      0.2103
     98  OG        21.8890    1.2710   76.8570 O.3   592  SER592     -0.2182
     99  N         25.9220    0.9430   76.9830 N.am  593  TYR593     -0.1975
    100  CA        27.3680    1.0980   77.0900 C.3   593  TYR593      0.1639
    101  C         27.8630    0.6230   78.4530 C.2   593  TYR593      0.2290
    102  O         28.9710    0.0910   78.5660 O.2   593  TYR593     -0.2864
    103  CB        27.7940    2.5480   76.8500 C.3   593  TYR593      0.0560
    104  CG        29.2410    2.6740   76.4270 C.ar  593  TYR593     -0.0198
    105  CD1       30.2740    2.5010   77.3460 C.ar  593  TYR593     -0.0009
    106  CD2       29.5790    2.9510   75.1070 C.ar  593  TYR593     -0.0009
    107  CE1       31.6020    2.6010   76.9640 C.ar  593  TYR593      0.0417
    108  CE2       30.9070    3.0570   74.7180 C.ar  593  TYR593      0.0417
    109  CZ        31.9110    2.8770   75.6520 C.ar  593  TYR593      0.1957
    110  OH        33.2270    2.9790   75.2810 O.3   593  TYR593     -0.2866
    111  N         26.5200   -3.6820   74.3190 N.3   618  VAL618     -0.1245
    112  CA        27.3430   -3.8860   73.1330 C.3   618  VAL618      0.1561
    113  C         28.3520   -4.9620   73.5240 C.2   618  VAL618      0.2260
    114  O         28.8630   -4.9610   74.6480 O.2   618  VAL618     -0.2867
    115  CB        28.0630   -2.5790   72.6980 C.3   618  VAL618      0.0252
    116  CG1       29.1760   -2.8560   71.6870 C.3   618  VAL618      0.0019
    117  CG2       27.0680   -1.5850   72.1150 C.3   618  VAL618      0.0019
    118  N         32.0460   -4.0370   68.6750 N.3   621  TRP621     -0.1241
    119  CA        31.7920   -2.7340   68.0560 C.3   621  TRP621      0.1605
    120  C         31.4890   -2.7580   66.5570 C.2   621  TRP621      0.2264
    121  O         30.9830   -1.7800   66.0100 O.2   621  TRP621     -0.2867
    122  CB        32.9300   -1.7610   68.3690 C.3   621  TRP621      0.0550
    123  CG        32.8650   -1.2530   69.7740 C.ar  621  TRP621      0.0003
    124  CD1       33.7760   -1.4670   70.7680 C.ar  621  TRP621      0.0946
    125  CD2       31.8170   -0.4670   70.3540 C.ar  621  TRP621      0.0152
    126  NE1       33.3650   -0.8560   71.9280 N.ar  621  TRP621     -0.2442
    127  CE2       32.1640   -0.2340   71.7020 C.ar  621  TRP621      0.0810
    128  CE3       30.6130    0.0670   69.8700 C.ar  621  TRP621      0.0012
    129  CZ2       31.3570    0.5080   72.5670 C.ar  621  TRP621      0.0191
    130  CZ3       29.8160    0.8070   70.7280 C.ar  621  TRP621      0.0001
    131  CH2       30.1910    1.0180   72.0630 C.ar  621  TRP621      0.0015
    132  N         27.6480   -2.5920   66.1990 N.3   624  TYR624     -0.1241
    133  CA        26.9450   -1.3260   66.4450 C.3   624  TYR624      0.1605
    134  C         26.9830   -0.3850   65.2310 C.2   624  TYR624      0.2264
    135  O         27.6930   -0.6600   64.2620 O.2   624  TYR624     -0.2867
    136  CB        27.4630   -0.6350   67.7210 C.3   624  TYR624      0.0534
    137  CG        26.4570    0.3270   68.3120 C.ar  624  TYR624     -0.0201
    138  CD1       25.2380   -0.1320   68.8150 C.ar  624  TYR624     -0.0009
    139  CD2       26.7040    1.7000   68.3340 C.ar  624  TYR624     -0.0009
    140  CE1       24.3020    0.7460   69.3390 C.ar  624  TYR624      0.0417
    141  CE2       25.7710    2.5880   68.8560 C.ar  624  TYR624      0.0417
    142  CZ        24.5720    2.1030   69.3570 C.ar  624  TYR624      0.1957
    143  OH        23.6420    2.9730   69.8760 O.3   624  TYR624     -0.2866
    144  N         27.9530    6.4070   65.4130 N.3   628  TYR628     -0.1241
    145  CA        28.4460    6.4000   66.7890 C.3   628  TYR628      0.1605
    146  C         29.8130    5.7270   66.9050 C.2   628  TYR628      0.2264
    147  O         30.7350    6.2820   67.5030 O.2   628  TYR628     -0.2867
    148  CB        27.4360    5.7330   67.7280 C.3   628  TYR628      0.0534
    149  CG        27.8680    5.6650   69.1750 C.ar  628  TYR628     -0.0201
    150  CD1       28.6270    4.5910   69.6480 C.ar  628  TYR628     -0.0009
    151  CD2       27.5100    6.6670   70.0780 C.ar  628  TYR628     -0.0009
    152  CE1       29.0240    4.5180   70.9750 C.ar  628  TYR628      0.0417
    153  CE2       27.9010    6.6030   71.4150 C.ar  628  TYR628      0.0417
    154  CZ        28.6620    5.5260   71.8540 C.ar  628  TYR628      0.1957
    155  OH        29.0570    5.4520   73.1700 O.3   628  TYR628     -0.2866
    156  N         32.8710    7.4120   64.9420 N.3   631  ARG631     -0.1245
    157  CA        33.2290    8.6410   65.6470 C.3   631  ARG631      0.1563
    158  C         34.3640    8.3910   66.6400 C.2   631  ARG631      0.2260
    159  O         35.3120    9.1780   66.7160 O.2   631  ARG631     -0.2867
    160  CB        32.0010    9.2160   66.3710 C.3   631  ARG631      0.0307
    161  CG        32.2870   10.3950   67.2910 C.3   631  ARG631      0.0489
    162  CD        31.1520   11.3900   67.3990 C.3   631  ARG631      0.2205
    163  NE        30.0950   10.9160   68.2900 N.pl3 631  ARG631     -0.0865
    164  CZ        28.8880   10.5370   67.8910 C.cat 631  ARG631      0.5346
    165  NH1       28.5580   10.5790   66.6060 N.pl3 631  ARG631      0.1354
    166  NH2       28.0010   10.1200   68.7850 N.pl3 631  ARG631      0.1354
    167  N         18.4360   -1.1260   68.6080 N.3   672  ASN672     -0.1225
    168  CA        19.5960   -0.2790   68.8730 C.3   672  ASN672      0.1785
    169  C         20.8620   -1.1160   68.9820 C.2   672  ASN672      0.2597
    170  O         21.6390   -1.2100   68.0320 O.2   672  ASN672     -0.2718
    171  CB        19.3690    0.5250   70.1610 C.3   672  ASN672      0.1169
    172  CG        20.2130    1.7830   70.2340 C.2   672  ASN672      0.2627
    173  OD1       21.4380    1.7410   70.1120 O.2   672  ASN672     -0.2716
    174  ND2       19.5600    2.9100   70.4630 N.am  672  ASN672     -0.0877
    175  N         21.0640   -1.7010   70.1580 N.am  673  VAL673     -0.1980
    176  CA        22.0450   -2.7500   70.3510 C.3   673  VAL673      0.1595
    177  C         21.2760   -4.0360   70.0840 C.2   673  VAL673      0.2287
    178  O         20.4800   -4.4690   70.9110 O.2   673  VAL673     -0.2864
    179  CB        22.6130   -2.7460   71.7910 C.3   673  VAL673      0.0276
    180  CG1       23.6470   -3.8330   71.9590 C.3   673  VAL673      0.0022
    181  CG2       23.2230   -1.3930   72.1320 C.3   673  VAL673      0.0022
    182  N         15.4220   -1.4040   73.4110 N.3   702  HIS702     -0.1241
    183  CA        16.5990   -0.9940   74.1800 C.3   702  HIS702      0.1621
    184  C         16.2560   -0.4730   75.5690 C.2   702  HIS702      0.2264
    185  O         17.0760   -0.5410   76.4870 O.2   702  HIS702     -0.2867
    186  CB        17.4030    0.0580   73.4170 C.3   702  HIS702      0.0745
    187  CG        18.8300    0.1600   73.8540 C.ar  702  HIS702      0.0817
    188  ND1       19.6060   -0.9450   74.1300 N.ar  702  HIS702     -0.2268
    189  CD2       19.6230    1.2370   74.0570 C.ar  702  HIS702      0.1154
    190  CE1       20.8150   -0.5520   74.4880 C.ar  702  HIS702      0.1986
    191  NE2       20.8520    0.7670   74.4460 N.ar  702  HIS702     -0.2212
@<TRIPOS>BOND
     1    45    44    1
     2    46    44    1
     3    44    41    1
     4   135   134    2
     5    41    42    1
     6    41    40    1
     7   156   157    1
     8    42    43    2
     9    40    33   am
    10   134   133    1
    11   144   145    1
    12   157   160    1
    13   157   158    1
    14    35    36    1
    15    35    32    1
    16    22    23    1
    17    33    34    2
    18    33    32    1
    19   121   120    2
    20    36    37    1
    21   132   133    1
    22    31    32    1
    23    31    24   am
    24   160   161    1
    25   133   136    1
    26   120   119    1
    27   165   164    1
    28   158   159    2
    29   145   146    1
    30   145   148    1
    31    68    65    1
    32    68    69    1
    33   146   147    2
    34    47    48    1
    35    26    23    1
    36    26    27    1
    37    23    24    1
    38    70    71    1
    39    70    69    1
    40   161   162    1
    41    24    25    2
    42    65    66    1
    43    65    64    1
    44    71    72    2
    45   162   163    1
    46    37    39   ar
    47    37    38   ar
    48    66    67    2
    49   136   137    1
    50   148   149    1
    51    56    55    2
    52   164   163    2
    53   164   166    1
    54   170   169    2
    55   119   122    1
    56   119   118    1
    57    27    28    1
    58    49    48    1
    59    49    50    2
    60    48    51    1
    61   137   139   ar
    62   137   138   ar
    63   139   141   ar
    64    14    15    2
    65    14    13    1
    66   122   123    1
    67    72    74    1
    68    72    73    1
    69   167   168    1
    70    64    55   am
    71    55    54    1
    72   138   140   ar
    73   141   142   ar
    74   168   169    1
    75   168   171    1
    76    16    13    1
    77    16    17    1
    78   169   175   am
    79   149   150   ar
    80   149   151   ar
    81    19    17   ar
    82    19    21   ar
    83   140   142   ar
    84    13    12    1
    85   142   143    1
    86     1     2    1
    87    12     3   am
    88    51    52    1
    89    28    29   ar
    90    28    30   ar
    91   150   152   ar
    92    17    18   ar
    93   123   125   ar
    94   123   124   ar
    95   128   125   ar
    96   128   130   ar
    97   151   153   ar
    98   177   176    1
    99   177   178    2
   100   173   172    2
   101   175   176    1
   102   171   172    1
   103    54    57    1
   104    54    53    1
   105   172   174   am
   106    21    20   ar
   107   176   179    1
   108   125   127   ar
   109     2     3    1
   110     2     5    1
   111     3     4    2
   112   130   131   ar
   113    57    58    1
   114     5     6    1
   115   124   126   ar
   116    18    20   ar
   117   152   154   ar
   118   153   154   ar
   119   116   115    1
   120   127   126   ar
   121   127   129   ar
   122   179   180    1
   123   179   181    1
   124   154   155    1
   125   131   129   ar
   126    58    59   ar
   127    58    60   ar
   128   117   115    1
   129    59    61   ar
   130     6     7    1
   131     8     7    1
   132     8     9    2
   133   115   112    1
   134   112   113    1
   135   112   111    1
   136    11     9    1
   137    60    62   ar
   138    61    63   ar
   139     9    10    1
   140   182   183    1
   141   186   187    1
   142   186   183    1
   143   113   114    2
   144   187   189   ar
   145   187   188   ar
   146   189   191   ar
   147   188   190   ar
   148   183   184    1
   149   191   190   ar
   150    62    63   ar
   151   108   106   ar
   152   108   109   ar
   153   106   104   ar
   154   110   109    1
   155   184   185    2
   156   109   107   ar
   157   104   103    1
   158   104   105   ar
   159    86    85    1
   160    97    98    1
   161    97    94    1
   162   103   100    1
   163   107   105   ar
   164    99   100    1
   165    99    95   am
   166    94    95    1
   167    94    93    1
   168   100   101    1
   169    95    96    2
   170    85    84   ar
   171    85    83   ar
   172    87    88    1
   173    84    82   ar
   174   101   102    2
   175    83    81   ar
   176    91    88    1
   177    91    92    1
   178    88    89    1
   179    82    80   ar
   180    81    80   ar
   181    80    79    1
   182    78    77    2
   183    89    90    2
   184    77    76    1
   185    79    76    1
   186    76    75    1
