@<TRIPOS>MOLECULE
tmp/2bucC04.pdb
 88 82 0 0 0
SMALL
GASTEIGER

@<TRIPOS>ATOM
      1  N         32.1630   15.4040   57.9630 N.3   279  ARG279     -0.1245
      2  CA        32.6810   14.2380   57.2550 C.3   279  ARG279      0.1563
      3  C         32.3470   12.9650   58.0280 C.2   279  ARG279      0.2260
      4  O         32.0750   13.0160   59.2290 O.2   279  ARG279     -0.2867
      5  CB        34.1970   14.3540   57.0790 C.3   279  ARG279      0.0307
      6  CG        34.6430   15.3600   56.0330 C.3   279  ARG279      0.0489
      7  CD        36.1090   15.2430   55.6690 C.3   279  ARG279      0.2205
      8  NE        36.5480   16.3490   54.8230 N.pl3 279  ARG279     -0.0865
      9  CZ        37.7490   16.9180   54.8850 C.cat 279  ARG279      0.5346
     10  NH1       38.6530   16.4900   55.7620 N.pl3 279  ARG279      0.1354
     11  NH2       38.0490   17.9210   54.0680 N.pl3 279  ARG279      0.1354
     12  N         34.2700   10.5970   59.0310 N.3   281  ALA281     -0.1245
     13  CA        35.2690   10.3990   60.0830 C.3   281  ALA281      0.1562
     14  C         34.9450   11.2030   61.3420 C.2   281  ALA281      0.2260
     15  O         35.3760   10.8470   62.4420 O.2   281  ALA281     -0.2867
     16  CB        36.6550   10.7540   59.5670 C.3   281  ALA281      0.0290
     17  N         35.7990   14.2340   62.3530 N.3   283  ASN283     -0.1225
     18  CA        36.8550   15.0710   62.9140 C.3   283  ASN283      0.1785
     19  C         36.9720   16.3850   62.1350 C.2   283  ASN283      0.2597
     20  O         37.8590   17.2060   62.3890 O.2   283  ASN283     -0.2718
     21  CB        38.1830   14.3120   62.8980 C.3   283  ASN283      0.1169
     22  CG        38.6690   14.0160   61.4920 C.2   283  ASN283      0.2627
     23  OD1       37.8710   13.9120   60.5540 O.2   283  ASN283     -0.2716
     24  ND2       39.9890   13.8950   61.3350 N.am  283  ASN283     -0.0877
     25  N         36.0660   16.5580   61.1760 N.am  284  TYR284     -0.1976
     26  CA        36.0220   17.7300   60.3150 C.3   284  TYR284      0.1639
     27  C         34.5720   18.1630   60.1990 C.2   284  TYR284      0.2290
     28  O         33.7210   17.3890   59.7670 O.2   284  TYR284     -0.2864
     29  CB        36.5890   17.4010   58.9270 C.3   284  TYR284      0.0560
     30  CG        36.7060   18.5880   57.9900 C.ar  284  TYR284     -0.0198
     31  CD1       35.5790   19.1310   57.3650 C.ar  284  TYR284     -0.0009
     32  CD2       37.9470   19.1610   57.7160 C.ar  284  TYR284     -0.0009
     33  CE1       35.6850   20.2220   56.5070 C.ar  284  TYR284      0.0417
     34  CE2       38.0650   20.2490   56.8550 C.ar  284  TYR284      0.0417
     35  CZ        36.9310   20.7740   56.2550 C.ar  284  TYR284      0.1957
     36  OH        37.0440   21.8480   55.4040 O.3   284  TYR284     -0.2866
     37  N         37.7570   21.6860   63.2210 N.3   310  ILE310     -0.1231
     38  CA        38.4430   20.3990   63.1600 C.3   310  ILE310      0.1692
     39  C         38.8720   19.9110   64.5350 C.2   310  ILE310      0.2593
     40  O         39.0040   20.6990   65.4700 O.2   310  ILE310     -0.2718
     41  CB        39.6740   20.4600   62.2100 C.3   310  ILE310      0.0266
     42  CG1       40.6120   21.6120   62.5900 C.3   310  ILE310      0.0019
     43  CG2       39.2370   20.5790   60.7620 C.3   310  ILE310      0.0020
     44  CD1       42.0610   21.1970   62.7400 C.3   310  ILE310      0.0001
     45  N         39.0700   18.6010   64.6440 N.am  311  SER311     -0.1938
     46  CA        39.7340   17.9980   65.7930 C.3   311  SER311      0.2055
     47  C         40.9140   17.1640   65.3030 C.2   311  SER311      0.2643
     48  O         40.7680   16.3340   64.4010 O.2   311  SER311     -0.2714
     49  CB        38.7650   17.1290   66.5960 C.3   311  SER311      0.2130
     50  OG        39.3550   16.7110   67.8160 O.3   311  SER311     -0.2179
     51  N         42.0840   17.4080   65.8830 N.am  312  THR312     -0.1950
     52  CA        43.2790   16.6330   65.5600 C.3   312  THR312      0.1897
     53  C         43.4280   15.4600   66.5200 C.2   312  THR312      0.2313
     54  O         44.0860   14.4660   66.2010 O.2   312  THR312     -0.2863
     55  CB        44.5530   17.5150   65.6120 C.3   312  THR312      0.1794
     56  OG1       44.5640   18.2920   66.8190 O.3   312  THR312     -0.2208
     57  CG2       44.5370   18.5660   64.5050 C.3   312  THR312      0.0378
     58  N         39.6960    6.0070   69.6050 N.3   558  ARG558     -0.1245
     59  CA        40.1470    4.8270   68.8600 C.3   558  ARG558      0.1563
     60  C         40.4930    3.6300   69.7500 C.2   558  ARG558      0.2260
     61  O         41.0960    2.6620   69.2900 O.2   558  ARG558     -0.2867
     62  CB        41.3000    5.1810   67.9080 C.3   558  ARG558      0.0307
     63  CG        40.9080    6.1580   66.7970 C.3   558  ARG558      0.0489
     64  CD        42.0860    6.7330   66.0110 C.3   558  ARG558      0.2205
     65  NE        43.0370    5.6950   65.6060 N.pl3 558  ARG558     -0.0865
     66  CZ        42.9270    4.9470   64.5100 C.cat 558  ARG558      0.5346
     67  NH1       41.9070    5.1150   63.6770 N.pl3 558  ARG558      0.1354
     68  NH2       43.8470    4.0260   64.2480 N.pl3 558  ARG558      0.1354
     69  N         36.8780    4.8990   64.4190 N.3   634  GLY634     -0.1210
     70  CA        37.2680    4.9480   63.0200 C.3   634  GLY634      0.1956
     71  C         36.7190    3.7520   62.2680 C.2   634  GLY634      0.2611
     72  O         35.6530    3.2400   62.6110 O.2   634  GLY634     -0.2717
     73  N         37.4480    3.2920   61.2570 N.am  635  LEU635     -0.1979
     74  CA        36.9770    2.1830   60.4260 C.3   635  LEU635      0.1596
     75  C         37.6220    0.8430   60.7990 C.2   635  LEU635      0.2287
     76  O         38.7990    0.7960   61.1520 O.2   635  LEU635     -0.2864
     77  CB        37.1820    2.4960   58.9400 C.3   635  LEU635      0.0297
     78  CG        36.3900    3.6850   58.3810 C.3   635  LEU635      0.0022
     79  CD1       36.9280    4.0970   57.0180 C.3   635  LEU635      0.0001
     80  CD2       34.8900    3.3790   58.3020 C.3   635  LEU635      0.0001
     81  N         43.1010    0.8610   58.9950 N.3   640  ASP640     -0.1239
     82  CA        42.6840    1.7720   60.0610 C.3   640  ASP640      0.1674
     83  C         42.7950    1.1340   61.4510 C.2   640  ASP640      0.2266
     84  O         43.8980    0.8250   61.9050 O.2   640  ASP640     -0.2867
     85  CB        41.2660    2.3070   59.7960 C.3   640  ASP640      0.1410
     86  CG        40.9860    3.6300   60.5070 C.2   640  ASP640      0.3668
     87  OD1       41.8310    4.0880   61.3070 O.co2 640  ASP640     -0.2456
     88  OD2       39.9350    4.2830   60.3300 O.co2 640  ASP640     -0.2456
@<TRIPOS>BOND
     1    11     9    1
     2     8     9    2
     3     8     7    1
     4     9    10    1
     5    36    35    1
     6     7     6    1
     7     6     5    1
     8    35    33   ar
     9    35    34   ar
    10    33    31   ar
    11    34    32   ar
    12    79    78    1
    13     5     2    1
    14     2     1    1
    15     2     3    1
    16    31    30   ar
    17    32    30   ar
    18    30    29    1
    19     3     4    2
    20    80    78    1
    21    78    77    1
    22    29    26    1
    23    77    74    1
    24    81    82    1
    25    12    13    1
    26    16    13    1
    27    28    27    2
    28    85    82    1
    29    85    86    1
    30    82    83    1
    31    13    14    1
    32    27    26    1
    33    26    25    1
    34    88    86   ar
    35    74    75    1
    36    74    73    1
    37    86    87   ar
    38    23    22    2
    39    43    41    1
    40    75    76    2
    41    25    19   am
    42    73    71   am
    43    24    22   am
    44    14    15    2
    45    83    84    2
    46    22    21    1
    47    19    20    2
    48    19    18    1
    49    41    42    1
    50    41    38    1
    51    71    72    2
    52    71    70    1
    53    17    18    1
    54    42    44    1
    55    21    18    1
    56    70    69    1
    57    38    37    1
    58    38    39    1
    59    67    66    1
    60    68    66    1
    61    48    47    2
    62    57    55    1
    63    66    65    2
    64    39    45   am
    65    39    40    2
    66    45    46    1
    67    47    46    1
    68    47    51   am
    69    52    55    1
    70    52    51    1
    71    52    53    1
    72    65    64    1
    73    55    56    1
    74    46    49    1
    75    64    63    1
    76    54    53    2
    77    49    50    1
    78    63    62    1
    79    62    59    1
    80    59    58    1
    81    59    60    1
    82    61    60    2
