@<TRIPOS>MOLECULE
tmp/2bueA00.pdb
 230 229 0 0 0
SMALL
GASTEIGER

@<TRIPOS>ATOM
      1  N          7.2780   -4.0670   10.3900 N.3    24  HIS24      -0.1226
      2  CA         7.0510   -3.3710   11.6790 C.3    24  HIS24       0.1752
      3  C          7.9030   -2.1110   11.8560 C.2    24  HIS24       0.2595
      4  O          7.6120   -1.2560   12.6950 O.2    24  HIS24      -0.2718
      5  CB         7.2380   -4.3060   12.8710 C.3    24  HIS24       0.0759
      6  CG         8.6610   -4.6540   13.1650 C.ar   24  HIS24       0.0818
      7  ND1        9.3490   -5.6390   12.4810 N.ar   24  HIS24      -0.2268
      8  CD2        9.5240   -4.1680   14.0950 C.ar   24  HIS24       0.1154
      9  CE1       10.5700   -5.7400   12.9760 C.ar   24  HIS24       0.1986
     10  NE2       10.7070   -4.8510   13.9470 N.ar   24  HIS24      -0.2212
     11  N          8.9660   -2.0220   11.0670 N.am   25  ILE25      -0.1980
     12  CA         9.8800   -0.8860   11.0940 C.3    25  ILE25       0.1595
     13  C          9.4800    0.1560   10.0350 C.2    25  ILE25       0.2287
     14  O          9.4220    1.3630   10.2980 O.2    25  ILE25      -0.2864
     15  CB        11.3540   -1.3810   10.9130 C.3    25  ILE25       0.0276
     16  CG1       11.7750   -2.1670   12.1740 C.3    25  ILE25       0.0022
     17  CG2       12.3040   -0.1880   10.6950 C.3    25  ILE25       0.0022
     18  CD1       13.0050   -3.0390   12.0440 C.3    25  ILE25       0.0001
     19  N          7.0150    3.0070   10.9100 N.3    28  TRP28      -0.1227
     20  CA         7.3700    4.1480   11.7760 C.3    28  TRP28       0.1737
     21  C          8.7170    4.7940   11.4270 C.2    28  TRP28       0.2595
     22  O          9.1490    5.7450   12.0710 O.2    28  TRP28      -0.2718
     23  CB         7.4050    3.6900   13.2390 C.3    28  TRP28       0.0564
     24  CG         6.0860    3.1680   13.7500 C.ar   28  TRP28       0.0003
     25  CD1        5.8070    1.8960   14.1700 C.ar   28  TRP28       0.0946
     26  CD2        4.8610    3.9090   13.8700 C.ar   28  TRP28       0.0152
     27  NE1        4.4880    1.8010   14.5580 N.ar   28  TRP28      -0.2442
     28  CE2        3.8830    3.0190   14.3800 C.ar   28  TRP28       0.0810
     29  CE3        4.5010    5.2380   13.6010 C.ar   28  TRP28       0.0012
     30  CZ2        2.5580    3.4190   14.6330 C.ar   28  TRP28       0.0191
     31  CZ3        3.1830    5.6350   13.8430 C.ar   28  TRP28       0.0001
     32  CH2        2.2330    4.7240   14.3440 C.ar   28  TRP28       0.0015
     33  N          9.3900    4.2490   10.4180 N.am   29  TRP29      -0.1976
     34  CA        10.7440    4.6610   10.1170 C.3    29  TRP29       0.1640
     35  C         10.9360    4.7380    8.6380 C.2    29  TRP29       0.2290
     36  O         10.7420    3.7500    7.9270 O.2    29  TRP29      -0.2864
     37  CB        11.7460    3.6570   10.6700 C.3    29  TRP29       0.0576
     38  CG        13.1520    4.1840   10.7390 C.ar   29  TRP29       0.0006
     39  CD1       13.9910    4.4940    9.6840 C.ar   29  TRP29       0.0946
     40  CD2       13.8800    4.4690   11.9260 C.ar   29  TRP29       0.0152
     41  NE1       15.2020    4.9590   10.1650 N.ar   29  TRP29      -0.2442
     42  CE2       15.1610    4.9400   11.5350 C.ar   29  TRP29       0.0810
     43  CE3       13.5810    4.3680   13.2950 C.ar   29  TRP29       0.0012
     44  CZ2       16.1340    5.3110   12.4610 C.ar   29  TRP29       0.0191
     45  CZ3       14.5620    4.7340   14.2240 C.ar   29  TRP29       0.0001
     46  CH2       15.8190    5.2020   13.7970 C.ar   29  TRP29       0.0015
     47  N         16.9420    8.3180   18.5130 N.3    95  ASP95      -0.1225
     48  CA        15.9300    7.5710   17.7230 C.3    95  ASP95       0.1805
     49  C         16.3520    6.1190   17.8130 C.2    95  ASP95       0.2598
     50  O         17.5430    5.8240   17.9400 O.2    95  ASP95      -0.2718
     51  CB        15.9530    7.9970   16.2570 C.3    95  ASP95       0.1424
     52  CG        15.7450    9.4890   16.0690 C.2    95  ASP95       0.3668
     53  OD1       14.5980    9.9530   16.2040 O.co2  95  ASP95      -0.2456
     54  OD2       16.7410   10.1730   15.7820 O.co2  95  ASP95      -0.2456
     55  N         15.3970    5.1970   17.7810 N.am   96  GLN96      -0.1965
     56  CA        15.7690    3.7890   17.8660 C.3    96  GLN96       0.1733
     57  C         14.6620    2.8660   17.3770 C.2    96  GLN96       0.2616
     58  O         13.5050    3.2780   17.2060 O.2    96  GLN96      -0.2715
     59  CB        16.2090    3.3990   19.2970 C.3    96  GLN96       0.0408
     60  CG        15.0970    3.1900   20.2840 C.3    96  GLN96       0.0908
     61  CD        14.3500    4.4360   20.6050 C.2    96  GLN96       0.2608
     62  OE1       14.9440    5.4990   20.8420 O.2    96  GLN96      -0.2717
     63  NE2       13.0200    4.3190   20.6590 N.am   96  GLN96      -0.0878
     64  N         15.0710    1.6410   17.0940 N.am   97  LEU97      -0.1963
     65  CA        14.1470    0.6150   16.6140 C.3    97  LEU97       0.1728
     66  C         14.6270   -0.7540   17.1070 C.2    97  LEU97       0.2616
     67  O         15.8310   -0.9900   17.2700 O.2    97  LEU97      -0.2715
     68  CB        14.0540    0.6420   15.0810 C.3    97  LEU97       0.0311
     69  CG        15.3480    0.3160   14.3070 C.3    97  LEU97       0.0022
     70  CD1       15.4520   -1.1920   14.0230 C.3    97  LEU97       0.0001
     71  CD2       15.4360    1.1210   13.0100 C.3    97  LEU97       0.0001
     72  N         13.6610   -1.6410   17.3300 N.am   98  LEU98      -0.1977
     73  CA        13.9370   -3.0460   17.6110 C.3    98  LEU98       0.1596
     74  C         13.7950   -3.8630   16.3210 C.2    98  LEU98       0.2287
     75  O         12.7880   -3.7750   15.6070 O.2    98  LEU98      -0.2864
     76  CB        12.9550   -3.5860   18.6670 C.3    98  LEU98       0.0297
     77  CG        13.1270   -3.0570   20.0980 C.3    98  LEU98       0.0022
     78  CD1       12.0610   -3.7040   21.0250 C.3    98  LEU98       0.0001
     79  CD2       14.5620   -3.3210   20.5830 C.3    98  LEU98       0.0001
     80  N          9.9110   -9.5050   19.3120 N.3   103  GLN103     -0.1231
     81  CA        10.4580   -8.9560   20.5520 C.3   103  GLN103      0.1698
     82  C          9.8510   -7.6160   20.9510 C.2   103  GLN103      0.2592
     83  O         10.3460   -6.9910   21.8910 O.2   103  GLN103     -0.2718
     84  CB        11.9980   -8.8550   20.4630 C.3   103  GLN103      0.0381
     85  CG        12.7280  -10.1990   20.3840 C.3   103  GLN103      0.0905
     86  CD        14.2440  -10.0780   20.2410 C.2   103  GLN103      0.2608
     87  OE1       14.7560   -9.3320   19.4040 O.2   103  GLN103     -0.2717
     88  NE2       14.9740  -10.8250   21.0660 N.am  103  GLN103     -0.0878
     89  N          8.7910   -7.1820   20.2620 N.am  104  LEU104     -0.1966
     90  CA         8.1120   -5.9090   20.5580 C.3   104  LEU104      0.1728
     91  C          7.1670   -6.0520   21.7420 C.2   104  LEU104      0.2617
     92  O          6.6300   -7.1340   21.9740 O.2   104  LEU104     -0.2715
     93  CB         7.3100   -5.3960   19.3560 C.3   104  LEU104      0.0311
     94  CG         8.0550   -5.1710   18.0320 C.3   104  LEU104      0.0022
     95  CD1        7.1210   -4.7380   16.9010 C.3   104  LEU104      0.0001
     96  CD2        9.2000   -4.1550   18.2150 C.3   104  LEU104      0.0001
     97  N          6.9750   -4.9590   22.4810 N.am  105  GLY105     -0.1940
     98  CA         6.0160   -4.9180   23.6010 C.3   105  GLY105      0.2014
     99  C          6.3490   -5.7920   24.7960 C.2   105  GLY105      0.2639
    100  O          5.4510   -6.1850   25.5560 O.2   105  GLY105     -0.2714
    101  N          7.6270   -6.1090   24.9730 N.am  106  LYS106     -0.1963
    102  CA         8.0850   -6.9400   26.0810 C.3   106  LYS106      0.1728
    103  C          9.1410   -6.2330   26.9610 C.2   106  LYS106      0.2617
    104  O          9.9020   -6.8910   27.6860 O.2   106  LYS106     -0.2715
    105  CB         8.6260   -8.2620   25.5410 C.3   106  LYS106      0.0311
    106  CG         7.5430   -9.1420   24.8920 C.3   106  LYS106      0.0038
    107  CD         8.1680  -10.3720   24.2590 C.3   106  LYS106      0.0206
    108  CE         7.1120  -11.2590   23.6400 C.3   106  LYS106      0.1093
    109  NZ         7.7110  -12.5570   23.2140 N.3   106  LYS106     -0.1314
    110  N          9.1910   -4.9040   26.8780 N.am  107  GLY107     -0.1940
    111  CA        10.0790   -4.1070   27.7330 C.3   107  GLY107      0.2014
    112  C         11.4990   -3.8820   27.2270 C.2   107  GLY107      0.2639
    113  O         12.2770   -3.1510   27.8480 O.2   107  GLY107     -0.2714
    114  N         11.8370   -4.4970   26.0940 N.am  108  LEU108     -0.1963
    115  CA        13.2050   -4.4250   25.5380 C.3   108  LEU108      0.1728
    116  C         13.5330   -3.0180   25.0200 C.2   108  LEU108      0.2617
    117  O         14.6730   -2.5490   25.1520 O.2   108  LEU108     -0.2715
    118  CB        13.3600   -5.4480   24.4060 C.3   108  LEU108      0.0311
    119  CG        14.6410   -6.2470   24.2510 C.3   108  LEU108      0.0022
    120  CD1       15.0480   -6.9260   25.5940 C.3   108  LEU108      0.0001
    121  CD2       14.4430   -7.3160   23.1500 C.3   108  LEU108      0.0001
    122  N         12.5450   -2.3610   24.4170 N.am  109  GLY109     -0.1940
    123  CA        12.7210   -0.9810   23.9440 C.3   109  GLY109      0.2014
    124  C         12.9920   -0.0190   25.0990 C.2   109  GLY109      0.2639
    125  O         13.8710    0.8430   25.0050 O.2   109  GLY109     -0.2714
    126  N         12.2550   -0.1780   26.2010 N.am  110  THR110     -0.1950
    127  CA        12.5100    0.6130   27.4110 C.3   110  THR110      0.1897
    128  C         13.9540    0.3840   27.9230 C.2   110  THR110      0.2313
    129  O         14.6650    1.3480   28.2310 O.2   110  THR110     -0.2863
    130  CB        11.4390    0.3190   28.5060 C.3   110  THR110      0.1794
    131  OG1       10.1470    0.6780   27.9960 O.3   110  THR110     -0.2208
    132  CG2       11.6930    1.1490   29.7510 C.3   110  THR110      0.0378
    133  N         13.5680   13.5020   22.4840 N.3   131  THR131     -0.1203
    134  CA        13.1430   12.6150   21.3950 C.3   131  THR131      0.1994
    135  C         11.8360   13.1820   20.8200 C.2   131  THR131      0.2618
    136  O         11.2210   14.0320   21.4580 O.2   131  THR131     -0.2717
    137  CB        13.0000   11.1550   21.8370 C.3   131  THR131      0.1784
    138  OG1       12.8870   10.3000   20.6730 O.3   131  THR131     -0.2211
    139  CG2       11.8190   10.9810   22.7760 C.3   131  THR131      0.0376
    140  N         11.4550   12.7100   19.6390 N.am  132  ASP132     -0.1960
    141  CA        10.4020   13.3740   18.8630 C.3   132  ASP132      0.1825
    142  C          9.5120   12.3670   18.1070 C.2   132  ASP132      0.2464
    143  O          9.3910   12.4560   16.8760 O.2   132  ASP132     -0.2730
    144  CB        11.0080   14.4220   17.9190 C.3   132  ASP132      0.1450
    145  CG        11.8390   13.7960   16.7770 C.2   132  ASP132      0.3671
    146  OD1       12.3800   12.6810   16.9740 O.co2 132  ASP132     -0.2456
    147  OD2       11.8940   14.4060   15.6860 O.co2 132  ASP132     -0.2456
    148  N          8.8820   11.4270   18.8440 N.am  133  PRO133     -0.2715
    149  CA         8.0300   10.4430   18.1790 C.3   133  PRO133      0.1536
    150  C          6.8650   11.1120   17.4470 C.2   133  PRO133      0.2599
    151  O          6.4220   12.1880   17.8320 O.2   133  PRO133     -0.2715
    152  CB         7.4930    9.5830   19.3340 C.3   133  PRO133      0.0310
    153  CG         7.5860   10.5080   20.5810 C.3   133  PRO133      0.0237
    154  CD         8.8810   11.2760   20.3150 C.3   133  PRO133      0.0939
    155  N          6.3990   10.4640   16.3820 N.am  134  SER134     -0.1950
    156  CA         5.1540   10.8580   15.7420 C.3   134  SER134      0.1924
    157  C          4.0030   10.8390   16.7600 C.2   134  SER134      0.2314
    158  O          3.9240    9.9230   17.5860 O.2   134  SER134     -0.2863
    159  CB         4.8200    9.8270   14.6690 C.3   134  SER134      0.2116
    160  OG         3.4600    9.9410   14.2800 O.3   134  SER134     -0.2180
    161  N          2.4040    7.5020   16.9970 N.3   137  ASN137     -0.1225
    162  CA         3.1920    6.3970   17.5540 C.3   137  ASN137      0.1785
    163  C          3.0890    6.2590   19.0730 C.2   137  ASN137      0.2597
    164  O          4.0620    6.5120   19.8120 O.2   137  ASN137     -0.2718
    165  CB         4.6660    6.5430   17.1100 C.3   137  ASN137      0.1169
    166  CG         5.4410    5.2360   17.2040 C.2   137  ASN137      0.2627
    167  OD1        4.9440    4.2520   17.7360 O.2   137  ASN137     -0.2716
    168  ND2        6.6670    5.2230   16.6500 N.am  137  ASN137     -0.0877
    169  N          1.8980    5.8620   19.5390 N.am  138  LEU138     -0.1966
    170  CA         1.5910    5.8260   20.9620 C.3   138  LEU138      0.1728
    171  C          2.5000    4.8470   21.7350 C.2   138  LEU138      0.2616
    172  O          2.8590    5.0960   22.9010 O.2   138  LEU138     -0.2715
    173  CB         0.0820    5.5200   21.1690 C.3   138  LEU138      0.0311
    174  CG        -0.8700    6.5510   20.5160 C.3   138  LEU138      0.0022
    175  CD1       -2.3460    6.0950   20.6500 C.3   138  LEU138      0.0001
    176  CD2       -0.6680    7.9700   21.0800 C.3   138  LEU138      0.0001
    177  N          2.8660    3.7430   21.0840 N.am  139  ARG139     -0.1963
    178  CA         3.7210    2.7380   21.7060 C.3   139  ARG139      0.1729
    179  C          5.0980    3.3500   21.9980 C.2   139  ARG139      0.2616
    180  O          5.6390    3.1890   23.0980 O.2   139  ARG139     -0.2715
    181  CB         3.8570    1.5020   20.7960 C.3   139  ARG139      0.0348
    182  CG         4.7580    0.4160   21.3840 C.3   139  ARG139      0.0492
    183  CD         4.7990   -0.8470   20.4940 C.3   139  ARG139      0.2205
    184  NE         5.2180   -0.5240   19.1380 N.pl3 139  ARG139     -0.0865
    185  CZ         4.9710   -1.2690   18.0590 C.cat 139  ARG139      0.5346
    186  NH1        4.2860   -2.4070   18.1650 N.pl3 139  ARG139      0.1354
    187  NH2        5.3900   -0.8650   16.8700 N.pl3 139  ARG139      0.1354
    188  N          5.6470    4.0590   21.0140 N.am  140  ALA140     -0.1977
    189  CA         6.9750    4.7220   21.1920 C.3   140  ALA140      0.1597
    190  C          6.8850    5.7650   22.3150 C.2   140  ALA140      0.2287
    191  O          7.7620    5.8500   23.1730 O.2   140  ALA140     -0.2864
    192  CB         7.4200    5.3720   19.9100 C.3   140  ALA140      0.0319
    193  N          4.8400    5.8720   24.9380 N.3   142  ARG142     -0.1231
    194  CA         4.7990    5.1800   26.2210 C.3   142  ARG142      0.1694
    195  C          6.1580    4.5980   26.6160 C.2   142  ARG142      0.2592
    196  O          6.5660    4.7180   27.7690 O.2   142  ARG142     -0.2718
    197  CB         3.7220    4.0910   26.2290 C.3   142  ARG142      0.0321
    198  CG         3.6370    3.3500   27.5600 C.3   142  ARG142      0.0489
    199  CD         2.9140    4.1660   28.6420 C.3   142  ARG142      0.2205
    200  NE         3.2330    3.6870   29.9910 N.pl3 142  ARG142     -0.0865
    201  CZ         3.7560    4.4470   30.9550 C.cat 142  ARG142      0.5346
    202  NH1        4.0030    5.7340   30.7360 N.pl3 142  ARG142      0.1354
    203  NH2        4.0170    3.9260   32.1520 N.pl3 142  ARG142      0.1354
    204  N          6.8580    3.9890   25.6610 N.am  143  CYS143     -0.1956
    205  CA         8.2050    3.4620   25.9330 C.3   143  CYS143      0.1843
    206  C          9.1010    4.5940   26.4750 C.2   143  CYS143      0.2625
    207  O          9.7730    4.4350   27.5030 O.2   143  CYS143     -0.2714
    208  CB         8.7930    2.8720   24.6580 C.3   143  CYS143      0.0997
    209  SG        10.5430    2.4510   24.7700 S.3   143  CYS143     -0.0797
    210  N          9.0780    5.7420   25.7930 N.am  144  TYR144     -0.1974
    211  CA         9.9050    6.8700   26.2130 C.3   144  TYR144      0.1639
    212  C          9.5520    7.3610   27.6220 C.2   144  TYR144      0.2290
    213  O         10.4370    7.6590   28.4250 O.2   144  TYR144     -0.2864
    214  CB         9.8350    8.0200   25.2050 C.3   144  TYR144      0.0560
    215  CG        10.6320    7.7750   23.9360 C.ar  144  TYR144     -0.0198
    216  CD1       12.0140    7.4680   24.0150 C.ar  144  TYR144     -0.0009
    217  CD2       10.0490    7.9580   22.6670 C.ar  144  TYR144     -0.0009
    218  CE1       12.8000    7.2830   22.8550 C.ar  144  TYR144      0.0417
    219  CE2       10.8180    7.7480   21.4920 C.ar  144  TYR144      0.0417
    220  CZ        12.2040    7.4110   21.6100 C.ar  144  TYR144      0.1957
    221  OH        13.0420    7.1980   20.5110 O.3   144  TYR144     -0.2866
    222  N          8.2210    5.5030   30.0150 N.3   146  LYS146     -0.1245
    223  CA         8.7230    4.4620   30.9270 C.3   146  LYS146      0.1561
    224  C         10.2330    4.6060   31.1650 C.2   146  LYS146      0.2260
    225  O         10.7420    4.3110   32.2560 O.2   146  LYS146     -0.2867
    226  CB         8.4000    3.0710   30.3930 C.3   146  LYS146      0.0271
    227  CG         6.9140    2.7570   30.4370 C.3   146  LYS146      0.0035
    228  CD         6.6650    1.2750   30.4650 C.3   146  LYS146      0.0206
    229  CE         7.0180    0.6520   29.1680 C.3   146  LYS146      0.1093
    230  NZ         7.1500   -0.8330   29.2910 N.3   146  LYS146     -0.1314
@<TRIPOS>BOND
     1    36    35    2
     2    35    34    1
     3    39    41   ar
     4    39    38   ar
     5    13    14    2
     6    13    12    1
     7    34    33    1
     8    34    37    1
     9    41    42   ar
    10     1     2    1
    11    33    21   am
    12    37    38    1
    13    17    15    1
    14    38    40   ar
    15    19    20    1
    16    15    12    1
    17    15    16    1
    18    11    12    1
    19    11     3   am
    20    21    20    1
    21    21    22    2
    22    42    40   ar
    23    42    44   ar
    24     2     3    1
    25     2     5    1
    26    20    23    1
    27     3     4    2
    28    40    43   ar
    29    18    16    1
    30    44    46   ar
    31     7     9   ar
    32     7     6   ar
    33     5     6    1
    34     9    10   ar
    35    71    69    1
    36     6     8   ar
    37    23    24    1
    38    43    45   ar
    39    29    31   ar
    40    29    26   ar
    41    24    26   ar
    42    24    25   ar
    43    46    45   ar
    44    31    32   ar
    45    26    28   ar
    46    10     8   ar
    47    70    69    1
    48    25    27   ar
    49   160   159    1
    50    69    68    1
    51    32    30   ar
    52    28    27   ar
    53    28    30   ar
    54   159   156    1
    55    68    65    1
    56    75    74    2
    57   147   145   ar
    58   156   155    1
    59   156   157    1
    60    54    52   ar
    61    52    53   ar
    62    52    51    1
    63    51    48    1
    64    74    73    1
    65   155   150   am
    66    65    64    1
    67    65    66    1
    68   168   166   am
    69   157   158    2
    70   145   146   ar
    71   145   144    1
    72   187   185    1
    73   143   142    2
    74    95    94    1
    75   161   162    1
    76    64    57   am
    77    66    67    2
    78    66    72   am
    79   165   166    1
    80   165   162    1
    81   166   167    2
    82    58    57    2
    83    72    73    1
    84    57    56    1
    85   150   151    2
    86   150   149    1
    87   162   163    1
    88    73    76    1
    89    48    49    1
    90    48    47    1
    91    55    49   am
    92    55    56    1
    93    49    50    2
    94    56    59    1
    95   144   141    1
    96    94    96    1
    97    94    93    1
    98   185   186    1
    99   185   184    2
   100   142   148   am
   101   142   141    1
   102   149   148    1
   103   149   152    1
   104    76    77    1
   105   148   154    1
   106   141   140    1
   107   163   169   am
   108   163   164    2
   109   184   183    1
   110    59    60    1
   111    80    81    1
   112   152   153    1
   113    93    90    1
   114    87    86    2
   115   169   170    1
   116   140   135   am
   117   192   189    1
   118    77    79    1
   119    77    78    1
   120    86    85    1
   121    86    88   am
   122    89    90    1
   123    89    82   am
   124    60    61    1
   125   154   153    1
   126    85    84    1
   127    84    81    1
   128   183   182    1
   129   221   220    1
   130   174   175    1
   131   174   176    1
   132   174   173    1
   133    81    82    1
   134    90    91    1
   135    61    63   am
   136    61    62    2
   137   138   137    1
   138   181   182    1
   139   181   178    1
   140   135   134    1
   141   135   136    2
   142    82    83    2
   143   170   173    1
   144   170   171    1
   145   188   189    1
   146   188   179   am
   147   177   178    1
   148   177   171   am
   149   189   190    1
   150   134   137    1
   151   134   133    1
   152   219   220   ar
   153   219   217   ar
   154   220   218   ar
   155   178   179    1
   156   171   172    2
   157    91    92    2
   158    91    97   am
   159   137   139    1
   160   179   180    2
   161   190   191    2
   162    97    98    1
   163   217   215   ar
   164   218   216   ar
   165   121   119    1
   166   109   108    1
   167    98    99    1
   168   108   107    1
   169   215   216   ar
   170   215   214    1
   171   123   122    1
   172   123   124    1
   173   119   118    1
   174   119   120    1
   175   107   106    1
   176   118   115    1
   177   122   116   am
   178   208   209    1
   179   208   205    1
   180    99   101   am
   181    99   100    2
   182   106   105    1
   183   193   194    1
   184   101   102    1
   185   125   124    2
   186   116   117    2
   187   116   115    1
   188   124   126   am
   189   214   211    1
   190   115   114    1
   191   105   102    1
   192   204   205    1
   193   204   195   am
   194   210   211    1
   195   210   206   am
   196   205   206    1
   197   102   103    1
   198   114   112   am
   199   126   127    1
   200   211   212    1
   201   194   197    1
   202   194   195    1
   203   197   198    1
   204   206   207    2
   205   195   196    2
   206   110   103   am
   207   110   111    1
   208   103   104    2
   209   112   111    1
   210   112   113    2
   211   127   128    1
   212   127   130    1
   213   198   199    1
   214   212   213    2
   215   128   129    2
   216   131   130    1
   217   130   132    1
   218   199   200    1
   219   229   230    1
   220   229   228    1
   221   200   201    2
   222   222   223    1
   223   226   227    1
   224   226   223    1
   225   227   228    1
   226   202   201    1
   227   223   224    1
   228   201   203    1
   229   224   225    2
