@<TRIPOS>MOLECULE
tmp/2bueA01.pdb
 204 202 0 0 0
SMALL
GASTEIGER

@<TRIPOS>ATOM
      1  N          7.0150    3.0070   10.9100 N.3    28  TRP28      -0.1227
      2  CA         7.3700    4.1480   11.7760 C.3    28  TRP28       0.1737
      3  C          8.7170    4.7940   11.4270 C.2    28  TRP28       0.2595
      4  O          9.1490    5.7450   12.0710 O.2    28  TRP28      -0.2718
      5  CB         7.4050    3.6900   13.2390 C.3    28  TRP28       0.0564
      6  CG         6.0860    3.1680   13.7500 C.ar   28  TRP28       0.0003
      7  CD1        5.8070    1.8960   14.1700 C.ar   28  TRP28       0.0946
      8  CD2        4.8610    3.9090   13.8700 C.ar   28  TRP28       0.0152
      9  NE1        4.4880    1.8010   14.5580 N.ar   28  TRP28      -0.2442
     10  CE2        3.8830    3.0190   14.3800 C.ar   28  TRP28       0.0810
     11  CE3        4.5010    5.2380   13.6010 C.ar   28  TRP28       0.0012
     12  CZ2        2.5580    3.4190   14.6330 C.ar   28  TRP28       0.0191
     13  CZ3        3.1830    5.6350   13.8430 C.ar   28  TRP28       0.0001
     14  CH2        2.2330    4.7240   14.3440 C.ar   28  TRP28       0.0015
     15  N          9.3900    4.2490   10.4180 N.am   29  TRP29      -0.1962
     16  CA        10.7440    4.6610   10.1170 C.3    29  TRP29       0.1771
     17  C         10.9360    4.7380    8.6380 C.2    29  TRP29       0.2620
     18  O         10.7420    3.7500    7.9270 O.2    29  TRP29      -0.2715
     19  CB        11.7460    3.6570   10.6700 C.3    29  TRP29       0.0590
     20  CG        13.1520    4.1840   10.7390 C.ar   29  TRP29       0.0006
     21  CD1       13.9910    4.4940    9.6840 C.ar   29  TRP29       0.0946
     22  CD2       13.8800    4.4690   11.9260 C.ar   29  TRP29       0.0152
     23  NE1       15.2020    4.9590   10.1650 N.ar   29  TRP29      -0.2442
     24  CE2       15.1610    4.9400   11.5350 C.ar   29  TRP29       0.0810
     25  CE3       13.5810    4.3680   13.2950 C.ar   29  TRP29       0.0012
     26  CZ2       16.1340    5.3110   12.4610 C.ar   29  TRP29       0.0191
     27  CZ3       14.5620    4.7340   14.2240 C.ar   29  TRP29       0.0001
     28  CH2       15.8190    5.2020   13.7970 C.ar   29  TRP29       0.0015
     29  N         11.3490    5.9060    8.1800 N.am   30  GLY30      -0.1940
     30  CA        11.6600    6.0970    6.7890 C.3    30  GLY30       0.2014
     31  C         11.0070    7.3630    6.2820 C.2    30  GLY30       0.2639
     32  O         11.6910    8.2420    5.7390 O.2    30  GLY30      -0.2714
     33  N          9.6890    7.4600    6.4710 N.am   31  GLY31      -0.1954
     34  CA         8.9200    8.5990    5.9340 C.3    31  GLY31       0.1869
     35  C          8.9940    8.5700    4.4150 C.2    31  GLY31       0.2309
     36  O          8.6460    7.5520    3.8030 O.2    31  GLY31      -0.2863
     37  N         11.6730    8.3170    2.8980 N.3    33  GLU33      -0.1245
     38  CA        12.7380    7.3410    2.6650 C.3    33  GLU33       0.1567
     39  C         12.4090    5.9250    3.1650 C.2    33  GLU33       0.2260
     40  O         13.3150    5.1030    3.3040 O.2    33  GLU33      -0.2867
     41  CB        14.0520    7.8300    3.2820 C.3    33  GLU33       0.0388
     42  CG        14.6750    9.0270    2.5690 C.3    33  GLU33       0.1160
     43  CD        15.7820    9.6830    3.3770 C.2    33  GLU33       0.3649
     44  OE1       16.2950    9.0440    4.3290 O.co2  33  GLU33      -0.2457
     45  OE2       16.1450   10.8420    3.0620 O.co2  33  GLU33      -0.2457
     46  N         23.5900    6.5050    3.2100 N.3    44  GLN44      -0.1231
     47  CA        22.9750    7.3690    4.2200 C.3    44  GLN44       0.1698
     48  C         23.3740    7.0230    5.6460 C.2    44  GLN44       0.2592
     49  O         23.4000    7.9150    6.5160 O.2    44  GLN44      -0.2718
     50  CB        21.4540    7.3410    4.0940 C.3    44  GLN44       0.0381
     51  CG        21.0010    8.0280    2.8030 C.3    44  GLN44       0.0905
     52  CD        19.5520    7.8100    2.4650 C.2    44  GLN44       0.2608
     53  OE1       18.6880    7.7550    3.3440 O.2    44  GLN44      -0.2717
     54  NE2       19.2690    7.6980    1.1710 N.am   44  GLN44      -0.0878
     55  N         23.6760    5.7480    5.8850 N.am   45  TYR45      -0.1976
     56  CA        23.9320    5.2800    7.2580 C.3    45  TYR45       0.1639
     57  C         25.3930    4.9050    7.5310 C.2    45  TYR45       0.2290
     58  O         25.7300    4.4970    8.6520 O.2    45  TYR45      -0.2864
     59  CB        23.0080    4.1160    7.6600 C.3    45  TYR45       0.0560
     60  CG        21.5630    4.5170    7.8490 C.ar   45  TYR45      -0.0198
     61  CD1       21.0750    4.8320    9.1280 C.ar   45  TYR45      -0.0009
     62  CD2       20.6890    4.5820    6.7630 C.ar   45  TYR45      -0.0009
     63  CE1       19.7560    5.1700    9.3220 C.ar   45  TYR45       0.0417
     64  CE2       19.3470    4.9520    6.9360 C.ar   45  TYR45       0.0417
     65  CZ        18.8940    5.2470    8.2230 C.ar   45  TYR45       0.1957
     66  OH        17.5760    5.6040    8.4100 O.3    45  TYR45      -0.2866
     67  N         26.9630    9.7690    8.5430 N.3    50  LEU50      -0.1245
     68  CA        26.1220   10.2090    9.6640 C.3    50  LEU50       0.1561
     69  C         26.8870   11.2520   10.5070 C.2    50  LEU50       0.2260
     70  O         26.2910   12.2240   10.9970 O.2    50  LEU50      -0.2867
     71  CB        25.7140    9.0200   10.5270 C.3    50  LEU50       0.0270
     72  CG        24.7120    8.0410    9.8840 C.3    50  LEU50       0.0019
     73  CD1       24.5240    6.8370   10.8280 C.3    50  LEU50       0.0001
     74  CD2       23.3950    8.7730    9.5860 C.3    50  LEU50       0.0001
     75  N         26.4180   14.8990    9.9150 N.3    53  GLU53      -0.1245
     76  CA        25.1650   15.4370   10.4160 C.3    53  GLU53       0.1567
     77  C         25.1090   15.4240   11.9460 C.2    53  GLU53       0.2260
     78  O         24.0300   15.5940   12.5400 O.2    53  GLU53      -0.2867
     79  CB        24.0140   14.5720    9.9180 C.3    53  GLU53       0.0388
     80  CG        22.7740   15.3520    9.6230 C.3    53  GLU53       0.1160
     81  CD        22.7260   15.7940    8.1830 C.2    53  GLU53       0.3649
     82  OE1       21.6450   16.2270    7.7530 O.co2  53  GLU53      -0.2457
     83  OE2       23.7560   15.6800    7.4740 O.co2  53  GLU53      -0.2457
     84  N         25.3960   12.8330   13.8080 N.3    55  VAL55      -0.1245
     85  CA        24.6640   11.6440   14.1960 C.3    55  VAL55       0.1561
     86  C         25.6270   10.4940   14.4480 C.2    55  VAL55       0.2260
     87  O         26.5390   10.2120   13.6280 O.2    55  VAL55      -0.2867
     88  CB        23.6100   11.2330   13.0970 C.3    55  VAL55       0.0252
     89  CG1       22.9320    9.8910   13.4470 C.3    55  VAL55       0.0019
     90  CG2       22.5540   12.3450   12.8970 C.3    55  VAL55       0.0019
     91  N         20.3820    5.7420   17.3950 N.3    71  GLN71      -0.1245
     92  CA        21.2930    6.8320   17.0420 C.3    71  GLN71       0.1566
     93  C         21.0970    7.9570   18.0300 C.2    71  GLN71       0.2260
     94  O         19.9880    8.1250   18.5760 O.2    71  GLN71      -0.2867
     95  CB        21.0680    7.3110   15.6060 C.3    71  GLN71       0.0367
     96  CG        19.6230    7.7590   15.3320 C.3    71  GLN71       0.0905
     97  CD        19.4120    8.2300   13.9040 C.2    71  GLN71       0.2608
     98  OE1       19.9860    7.6790   12.9470 O.2    71  GLN71      -0.2717
     99  NE2       18.5440    9.2220   13.7450 N.am   71  GLN71      -0.0878
    100  N         22.1360   12.2770   18.4170 N.3    73  TYR73      -0.1241
    101  CA        22.5460   13.4000   17.5880 C.3    73  TYR73       0.1605
    102  C         22.6810   14.6570   18.4290 C.2    73  TYR73       0.2264
    103  O         22.0260   14.7920   19.4840 O.2    73  TYR73      -0.2867
    104  CB        21.6110   13.6100   16.3550 C.3    73  TYR73       0.0534
    105  CG        20.1650   13.8460   16.7450 C.ar   73  TYR73      -0.0201
    106  CD1       19.7240   15.1430   17.0590 C.ar   73  TYR73      -0.0009
    107  CD2       19.2390   12.7810   16.7970 C.ar   73  TYR73      -0.0009
    108  CE1       18.4040   15.3880   17.4530 C.ar   73  TYR73       0.0417
    109  CE2       17.8860   13.0390   17.1960 C.ar   73  TYR73       0.0417
    110  CZ        17.4980   14.3320   17.5180 C.ar   73  TYR73       0.1957
    111  OH        16.2110   14.6290   17.9120 O.3    73  TYR73      -0.2866
    112  N         22.0220   19.6740   13.6840 N.3    78  SER78      -0.1217
    113  CA        21.2010   18.8850   12.7800 C.3    78  SER78       0.1889
    114  C         21.0070   19.5830   11.4360 C.2    78  SER78       0.2288
    115  O         21.2730   20.7750   11.3110 O.2    78  SER78      -0.2866
    116  CB        19.8640   18.5990   13.4590 C.3    78  SER78       0.2089
    117  OG        20.1030   17.9500   14.6980 O.3    78  SER78      -0.2183
    118  N         15.8180   21.2930   11.1280 N.3    82  TRP82      -0.1227
    119  CA        15.7840   20.5280   12.3780 C.3    82  TRP82       0.1737
    120  C         16.2850   21.3480   13.5680 C.2    82  TRP82       0.2595
    121  O         17.3860   21.9180   13.5140 O.2    82  TRP82      -0.2718
    122  CB        16.6250   19.2530   12.2520 C.3    82  TRP82       0.0564
    123  CG        16.0140   18.2180   11.3760 C.ar   82  TRP82       0.0003
    124  CD1       16.3370   17.9380   10.0690 C.ar   82  TRP82       0.0946
    125  CD2       14.9980   17.2900   11.7520 C.ar   82  TRP82       0.0152
    126  NE1       15.5680   16.8840    9.6090 N.ar   82  TRP82      -0.2442
    127  CE2       14.7110   16.4900   10.6090 C.ar   82  TRP82       0.0810
    128  CE3       14.2570   17.0910   12.9290 C.ar   82  TRP82       0.0012
    129  CZ2       13.7290   15.4730   10.6230 C.ar   82  TRP82       0.0191
    130  CZ3       13.2930   16.0770   12.9520 C.ar   82  TRP82       0.0001
    131  CH2       13.0330   15.2830   11.8050 C.ar   82  TRP82       0.0015
    132  N         15.4700   21.3970   14.6270 N.am   83  TRP83      -0.1976
    133  CA        15.8400   21.9970   15.9210 C.3    83  TRP83       0.1640
    134  C         16.3810   23.4110   15.7730 C.2    83  TRP83       0.2290
    135  O         17.3570   23.7810   16.4210 O.2    83  TRP83      -0.2864
    136  CB        16.8020   21.0590   16.7230 C.3    83  TRP83       0.0576
    137  CG        16.2870   19.6550   16.5910 C.ar   83  TRP83       0.0006
    138  CD1       16.9180   18.5930   16.0070 C.ar   83  TRP83       0.0946
    139  CD2       14.9700   19.1980   16.9400 C.ar   83  TRP83       0.0152
    140  NE1       16.0910   17.4920   15.9910 N.ar   83  TRP83      -0.2442
    141  CE2       14.8870   17.8300   16.5550 C.ar   83  TRP83       0.0810
    142  CE3       13.8650   19.7990   17.5620 C.ar   83  TRP83       0.0012
    143  CZ2       13.7270   17.0620   16.7460 C.ar   83  TRP83       0.0191
    144  CZ3       12.6890   19.0340   17.7440 C.ar   83  TRP83       0.0001
    145  CH2       12.6440   17.6710   17.3550 C.ar   83  TRP83       0.0015
    146  N         16.9420    8.3180   18.5130 N.3    95  ASP95      -0.1225
    147  CA        15.9300    7.5710   17.7230 C.3    95  ASP95       0.1805
    148  C         16.3520    6.1190   17.8130 C.2    95  ASP95       0.2597
    149  O         17.5430    5.8240   17.9400 O.2    95  ASP95      -0.2718
    150  CB        15.9530    7.9970   16.2570 C.3    95  ASP95       0.1424
    151  CG        15.7450    9.4890   16.0690 C.2    95  ASP95       0.3668
    152  OD1       14.5980    9.9530   16.2040 O.co2  95  ASP95      -0.2456
    153  OD2       16.7410   10.1730   15.7820 O.co2  95  ASP95      -0.2456
    154  N         15.3970    5.1970   17.7810 N.am   96  GLN96      -0.1979
    155  CA        15.7690    3.7890   17.8660 C.3    96  GLN96       0.1601
    156  C         14.6620    2.8660   17.3770 C.2    96  GLN96       0.2287
    157  O         13.5050    3.2780   17.2060 O.2    96  GLN96      -0.2864
    158  CB        16.2090    3.3990   19.2970 C.3    96  GLN96       0.0394
    159  CG        15.0970    3.1900   20.2840 C.3    96  GLN96       0.0908
    160  CD        14.3500    4.4360   20.6050 C.2    96  GLN96       0.2608
    161  OE1       14.9440    5.4990   20.8420 O.2    96  GLN96      -0.2717
    162  NE2       13.0200    4.3190   20.6590 N.am   96  GLN96      -0.0878
    163  N         13.5680   13.5020   22.4840 N.3   131  THR131     -0.1203
    164  CA        13.1430   12.6150   21.3950 C.3   131  THR131      0.1994
    165  C         11.8360   13.1820   20.8200 C.2   131  THR131      0.2618
    166  O         11.2210   14.0320   21.4580 O.2   131  THR131     -0.2717
    167  CB        13.0000   11.1550   21.8370 C.3   131  THR131      0.1784
    168  OG1       12.8870   10.3000   20.6730 O.3   131  THR131     -0.2211
    169  CG2       11.8190   10.9810   22.7760 C.3   131  THR131      0.0376
    170  N         11.4550   12.7100   19.6390 N.am  132  ASP132     -0.1960
    171  CA        10.4020   13.3740   18.8630 C.3   132  ASP132      0.1825
    172  C          9.5120   12.3670   18.1070 C.2   132  ASP132      0.2464
    173  O          9.3910   12.4560   16.8760 O.2   132  ASP132     -0.2730
    174  CB        11.0080   14.4220   17.9190 C.3   132  ASP132      0.1450
    175  CG        11.8390   13.7960   16.7770 C.2   132  ASP132      0.3671
    176  OD1       12.3800   12.6810   16.9740 O.co2 132  ASP132     -0.2456
    177  OD2       11.8940   14.4060   15.6860 O.co2 132  ASP132     -0.2456
    178  N          8.8820   11.4270   18.8440 N.am  133  PRO133     -0.2727
    179  CA         8.0300   10.4430   18.1790 C.3   133  PRO133      0.1402
    180  C          6.8650   11.1120   17.4470 C.2   133  PRO133      0.2269
    181  O          6.4220   12.1880   17.8320 O.2   133  PRO133     -0.2865
    182  CB         7.4930    9.5830   19.3340 C.3   133  PRO133      0.0296
    183  CG         7.5860   10.5080   20.5810 C.3   133  PRO133      0.0237
    184  CD         8.8810   11.2760   20.3150 C.3   133  PRO133      0.0939
    185  N          9.0780    5.7420   25.7930 N.3   144  TYR144     -0.1241
    186  CA         9.9050    6.8700   26.2130 C.3   144  TYR144      0.1605
    187  C          9.5520    7.3610   27.6220 C.2   144  TYR144      0.2264
    188  O         10.4370    7.6590   28.4250 O.2   144  TYR144     -0.2867
    189  CB         9.8350    8.0200   25.2050 C.3   144  TYR144      0.0534
    190  CG        10.6320    7.7750   23.9360 C.ar  144  TYR144     -0.0201
    191  CD1       12.0140    7.4680   24.0150 C.ar  144  TYR144     -0.0009
    192  CD2       10.0490    7.9580   22.6670 C.ar  144  TYR144     -0.0009
    193  CE1       12.8000    7.2830   22.8550 C.ar  144  TYR144      0.0417
    194  CE2       10.8180    7.7480   21.4920 C.ar  144  TYR144      0.0417
    195  CZ        12.2040    7.4110   21.6100 C.ar  144  TYR144      0.1957
    196  OH        13.0420    7.1980   20.5110 O.3   144  TYR144     -0.2866
    197  N          9.8440   16.2290    9.4640 N.3   159  ASP159     -0.1239
    198  CA         9.0710   14.9880    9.3320 C.3   159  ASP159      0.1674
    199  C          7.6390   15.1560    9.8550 C.2   159  ASP159      0.2266
    200  O          6.9730   14.1660   10.1920 O.2   159  ASP159     -0.2867
    201  CB         9.7650   13.8260   10.0490 C.3   159  ASP159      0.1410
    202  CG        11.0270   13.3590    9.3090 C.2   159  ASP159      0.3668
    203  OD1       11.1780   13.7390    8.1250 O.co2 159  ASP159     -0.2456
    204  OD2       11.8410   12.6210    9.9020 O.co2 159  ASP159     -0.2456
@<TRIPOS>BOND
     1    54    52   am
     2    52    51    1
     3    52    53    2
     4    42    41    1
     5    42    43    1
     6    38    37    1
     7    38    39    1
     8    38    41    1
     9    51    50    1
    10    45    43   ar
    11    39    40    2
    12    46    47    1
    13    43    44   ar
    14    36    35    2
    15    50    47    1
    16    47    48    1
    17    35    34    1
    18    48    55   am
    19    48    49    2
    20    32    31    2
    21    55    56    1
    22    34    33    1
    23    31    33   am
    24    31    30    1
    25    62    64   ar
    26    62    60   ar
    27    30    29    1
    28    64    65   ar
    29    56    57    1
    30    56    59    1
    31    83    81   ar
    32    57    58    2
    33    59    60    1
    34    82    81   ar
    35    60    61   ar
    36    18    17    2
    37   203   202   ar
    38    29    17   am
    39    81    80    1
    40    65    66    1
    41    65    63   ar
    42    67    68    1
    43    17    16    1
    44    61    63   ar
    45   202   204   ar
    46   202   201    1
    47   198   197    1
    48   198   199    1
    49   198   201    1
    50    74    72    1
    51   126   124   ar
    52   126   127   ar
    53    80    79    1
    54    68    69    1
    55    68    71    1
    56    21    23   ar
    57    21    20   ar
    58   199   200    2
    59    72    71    1
    60    72    73    1
    61    75    76    1
    62    79    76    1
    63   124   123   ar
    64    16    15    1
    65    16    19    1
    66    23    24   ar
    67    76    77    1
    68    15     3   am
    69    69    70    2
    70   127   129   ar
    71   127   125   ar
    72   129   131   ar
    73    19    20    1
    74    20    22   ar
    75     1     2    1
    76   118   119    1
    77   115   114    2
    78   123   125   ar
    79   123   122    1
    80     3     2    1
    81     3     4    2
    82   114   113    1
    83    24    22   ar
    84    24    26   ar
    85   125   128   ar
    86     2     5    1
    87   131   130   ar
    88    22    25   ar
    89    77    78    2
    90   122   119    1
    91   119   120    1
    92    26    28   ar
    93   113   116    1
    94   113   112    1
    95    90    88    1
    96   128   130   ar
    97    98    97    2
    98    88    89    1
    99    88    85    1
   100     5     6    1
   101    25    27   ar
   102   116   117    1
   103   121   120    2
   104   120   132   am
   105    11    13   ar
   106    11     8   ar
   107    87    86    2
   108    99    97   am
   109     6     8   ar
   110     6     7   ar
   111    28    27   ar
   112    84    85    1
   113    13    14   ar
   114     8    10   ar
   115    97    96    1
   116     7     9   ar
   117    85    86    1
   118    14    12   ar
   119    10     9   ar
   120    10    12   ar
   121   132   133    1
   122    96    95    1
   123    95    92    1
   124   177   175   ar
   125   134   133    1
   126   134   135    2
   127   153   151   ar
   128   133   136    1
   129   140   138   ar
   130   140   141   ar
   131   138   137   ar
   132   151   152   ar
   133   151   150    1
   134   150   147    1
   135   104   105    1
   136   104   101    1
   137   141   143   ar
   138   141   139   ar
   139   137   136    1
   140   137   139   ar
   141   105   107   ar
   142   105   106   ar
   143   143   145   ar
   144   175   176   ar
   145   175   174    1
   146   107   109   ar
   147   173   172    2
   148   139   142   ar
   149    92    91    1
   150    92    93    1
   151   106   108   ar
   152   109   110   ar
   153   157   156    2
   154   145   144   ar
   155   156   155    1
   156   180   181    2
   157   180   179    1
   158   108   110   ar
   159   110   111    1
   160   142   144   ar
   161   101   100    1
   162   101   102    1
   163   147   148    1
   164   147   146    1
   165   154   148   am
   166   154   155    1
   167   148   149    2
   168   155   158    1
   169   174   171    1
   170    93    94    2
   171   172   178   am
   172   172   171    1
   173   179   178    1
   174   179   182    1
   175   102   103    2
   176   178   184    1
   177   171   170    1
   178   158   159    1
   179   182   183    1
   180   170   165   am
   181   159   160    1
   182   184   183    1
   183   196   195    1
   184   160   162   am
   185   160   161    2
   186   168   167    1
   187   165   164    1
   188   165   166    2
   189   164   167    1
   190   164   163    1
   191   194   195   ar
   192   194   192   ar
   193   195   193   ar
   194   167   169    1
   195   192   190   ar
   196   193   191   ar
   197   190   191   ar
   198   190   189    1
   199   189   186    1
   200   185   186    1
   201   186   187    1
   202   187   188    2
