@<TRIPOS>MOLECULE
tmp/2bufF01.pdb
 105 97 0 0 0
SMALL
GASTEIGER

@<TRIPOS>ATOM
      1  N        -14.6020   45.6630   36.7530 N.3    34  GLY34      -0.1225
      2  CA       -14.1000   45.7970   38.1280 C.3    34  GLY34       0.1811
      3  C        -14.7670   45.2570   39.4010 C.2    34  GLY34       0.2280
      4  O        -15.8900   45.6510   39.7380 O.2    34  GLY34      -0.2866
      5  N        -14.7370   49.1470   37.7740 N.3    66  GLY66      -0.1210
      6  CA       -14.9990   49.7180   39.0840 C.3    66  GLY66       0.1956
      7  C        -13.8070   49.4250   39.9900 C.2    66  GLY66       0.2612
      8  O        -12.7260   50.0040   39.8290 O.2    66  GLY66      -0.2717
      9  N        -14.0290   48.5250   40.9500 N.am   67  GLY67      -0.1942
     10  CA       -13.0060   48.0540   41.8800 C.3    67  GLY67       0.2014
     11  C        -12.0810   48.9710   42.6550 C.2    67  GLY67       0.2639
     12  O        -11.2440   49.6720   42.0780 O.2    67  GLY67      -0.2714
     13  N        -12.2000   48.9100   43.9820 N.am   68  GLY68      -0.1954
     14  CA       -11.3820   49.7380   44.8490 C.3    68  GLY68       0.1869
     15  C        -10.5320   49.0710   45.9180 C.2    68  GLY68       0.2309
     16  O        -10.4820   49.5820   47.0370 O.2    68  GLY68      -0.2863
     17  N         -7.9170   51.5950   46.4360 N.3    71  ILE71      -0.1245
     18  CA        -8.2430   52.8590   47.0930 C.3    71  ILE71       0.1561
     19  C         -8.0830   52.7100   48.5940 C.2    71  ILE71       0.2260
     20  O         -7.3210   53.4400   49.2290 O.2    71  ILE71      -0.2867
     21  CB        -9.6960   53.2690   46.8290 C.3    71  ILE71       0.0252
     22  CG1       -9.8610   53.7200   45.3820 C.3    71  ILE71       0.0019
     23  CG2      -10.1030   54.3700   47.7950 C.3    71  ILE71       0.0019
     24  CD1      -11.3100   53.8530   44.9660 C.3    71  ILE71       0.0001
     25  N        -24.7390   50.1480   49.4760 N.3    87  GLY87      -0.1210
     26  CA       -24.6410   50.1580   48.0320 C.3    87  GLY87       0.1956
     27  C        -23.5130   51.1150   47.6970 C.2    87  GLY87       0.2612
     28  O        -22.4190   50.7130   47.2870 O.2    87  GLY87      -0.2717
     29  N        -23.7740   52.3970   47.9240 N.am   88  MET88      -0.1965
     30  CA       -22.7940   53.4370   47.6510 C.3    88  MET88       0.1736
     31  C        -21.8260   53.7350   48.7980 C.2    88  MET88       0.2616
     32  O        -22.0540   53.3540   49.9490 O.2    88  MET88      -0.2715
     33  CB       -23.5220   54.7040   47.2230 C.3    88  MET88       0.0427
     34  CG       -24.4560   54.4510   46.0580 C.3    88  MET88       0.0599
     35  SD       -25.0760   55.9550   45.3620 S.3    88  MET88      -0.1393
     36  CE       -25.6240   56.7800   46.8830 C.3    88  MET88       0.0692
     37  N        -20.7420   54.4240   48.4470 N.am   89  ARG89      -0.1977
     38  CA       -19.6720   54.8090   49.3660 C.3    89  ARG89       0.1597
     39  C        -19.7600   56.2870   49.7860 C.2    89  ARG89       0.2287
     40  O        -19.4310   57.1710   48.9940 O.2    89  ARG89      -0.2864
     41  CB       -18.3230   54.5500   48.6830 C.3    89  ARG89       0.0334
     42  CG       -17.9080   53.0880   48.6210 C.3    89  ARG89       0.0492
     43  CD       -16.7310   52.8470   49.5600 C.3    89  ARG89       0.2205
     44  NE       -15.4250   53.0640   48.9370 N.pl3  89  ARG89      -0.0865
     45  CZ       -14.3730   53.5930   49.5580 C.cat  89  ARG89       0.5346
     46  NH1      -14.4650   53.9760   50.8250 N.pl3  89  ARG89       0.1354
     47  NH2      -13.2180   53.7160   48.9180 N.pl3  89  ARG89       0.1354
     48  N        -10.5330   58.7190   45.7890 N.3    99  VAL99      -0.1245
     49  CA       -11.3070   57.8510   44.8930 C.3    99  VAL99       0.1561
     50  C        -10.9590   58.1960   43.4490 C.2    99  VAL99       0.2260
     51  O        -10.5020   57.3460   42.6890 O.2    99  VAL99      -0.2867
     52  CB       -12.8400   58.0360   45.0730 C.3    99  VAL99       0.0252
     53  CG1      -13.5930   57.4430   43.8890 C.3    99  VAL99       0.0019
     54  CG2      -13.2920   57.3590   46.3390 C.3    99  VAL99       0.0019
     55  N         -8.8550   55.6640   41.0570 N.3   103  LEU103     -0.1245
     56  CA        -9.7280   55.0930   40.0440 C.3   103  LEU103      0.1561
     57  C         -9.2590   55.4820   38.6520 C.2   103  LEU103      0.2260
     58  O         -8.9840   54.6160   37.8300 O.2   103  LEU103     -0.2867
     59  CB       -11.1590   55.5780   40.1990 C.3   103  LEU103      0.0270
     60  CG       -12.0810   54.9860   41.2480 C.3   103  LEU103      0.0019
     61  CD1      -13.4750   55.4910   40.9270 C.3   103  LEU103      0.0001
     62  CD2      -12.0600   53.4710   41.2230 C.3   103  LEU103      0.0001
     63  N        -21.3650   61.6520   45.3070 N.3   152  VAL152     -0.1245
     64  CA       -21.8290   60.3580   44.8020 C.3   152  VAL152      0.1561
     65  C        -23.0180   60.7320   43.9210 C.2   152  VAL152      0.2260
     66  O        -23.9420   61.3940   44.3920 O.2   152  VAL152     -0.2867
     67  CB       -22.3270   59.4430   45.9480 C.3   152  VAL152      0.0252
     68  CG1      -22.7920   58.1290   45.3800 C.3   152  VAL152      0.0019
     69  CG2      -21.2220   59.2040   46.9680 C.3   152  VAL152      0.0019
     70  N        -15.5740   55.0400   36.5570 N.3   177  PRO177     -0.2116
     71  CA       -16.8570   55.6400   36.9220 C.3   177  PRO177      0.1372
     72  C        -16.8440   56.8730   37.8410 C.2   177  PRO177      0.2244
     73  O        -17.2010   56.7910   39.0210 O.2   177  PRO177     -0.2868
     74  CB       -17.6040   54.4590   37.5230 C.3   177  PRO177      0.0268
     75  CG       -16.5200   53.7780   38.2990 C.3   177  PRO177      0.0207
     76  CD       -15.2840   53.8720   37.4110 C.3   177  PRO177      0.0892
     77  N        -18.7710   60.2660   42.9890 N.3   188  ASN188     -0.1225
     78  CA       -18.3010   58.9140   42.7810 C.3   188  ASN188      0.1785
     79  C        -19.5030   57.9860   42.5700 C.2   188  ASN188      0.2597
     80  O        -20.3820   57.8760   43.4220 O.2   188  ASN188     -0.2718
     81  CB       -17.4200   58.5290   43.9710 C.3   188  ASN188      0.1169
     82  CG       -17.2230   57.0560   44.1020 C.2   188  ASN188      0.2627
     83  OD1      -17.7950   56.4370   44.9910 O.2   188  ASN188     -0.2716
     84  ND2      -16.4130   56.4750   43.2250 N.am  188  ASN188     -0.0877
     85  N        -19.5490   57.3470   41.4030 N.am  189  ILE189     -0.1966
     86  CA       -20.6570   56.4600   41.0520 C.3   189  ILE189      0.1727
     87  C        -20.3240   54.9630   40.9850 C.2   189  ILE189      0.2616
     88  O        -19.1650   54.5490   41.0170 O.2   189  ILE189     -0.2715
     89  CB       -21.2890   56.9000   39.7090 C.3   189  ILE189      0.0290
     90  CG1      -21.6360   58.3850   39.7790 C.3   189  ILE189      0.0022
     91  CG2      -22.5520   56.0930   39.4130 C.3   189  ILE189      0.0023
     92  CD1      -22.1630   58.9600   38.4790 C.3   189  ILE189      0.0001
     93  N        -21.3880   54.1740   40.8840 N.am  190  ASN190     -0.1958
     94  CA       -21.3500   52.7170   40.8290 C.3   190  ASN190      0.1819
     95  C        -21.2030   52.1880   39.3950 C.2   190  ASN190      0.2621
     96  O        -22.0890   52.3880   38.5500 O.2   190  ASN190     -0.2715
     97  CB       -22.6380   52.2060   41.4850 C.3   190  ASN190      0.1195
     98  CG       -22.8400   50.7170   41.3340 C.2   190  ASN190      0.2630
     99  OD1      -21.9280   49.9790   40.9570 O.2   190  ASN190     -0.2716
    100  ND2      -24.0490   50.2610   41.6440 N.am  190  ASN190     -0.0877
    101  N        -20.0840   51.5050   39.1410 N.am  191  ALA191     -0.1977
    102  CA       -19.7640   50.9480   37.8250 C.3   191  ALA191      0.1597
    103  C        -20.9510   50.4030   37.0360 C.2   191  ALA191      0.2287
    104  O        -21.2110   50.8610   35.9250 O.2   191  ALA191     -0.2864
    105  CB       -18.6880   49.8680   37.9570 C.3   191  ALA191      0.0319
@<TRIPOS>BOND
     1   104   103    2
     2    70    71    1
     3    70    76    1
     4     1     2    1
     5    71    74    1
     6    71    72    1
     7   103   102    1
     8    76    75    1
     9    74    75    1
    10     5     6    1
    11   102   105    1
    12   102   101    1
    13    58    57    2
    14    72    73    2
    15     2     3    1
    16    92    90    1
    17    96    95    2
    18    57    56    1
    19     6     7    1
    20   101    95   am
    21    95    94    1
    22     3     4    2
    23    91    89    1
    24    89    90    1
    25    89    86    1
    26     8     7    2
    27     7     9   am
    28    56    59    1
    29    56    55    1
    30    59    60    1
    31    94    93    1
    32    94    97    1
    33    93    87   am
    34    61    60    1
    35     9    10    1
    36    99    98    2
    37    87    88    2
    38    87    86    1
    39    86    85    1
    40    62    60    1
    41    98    97    1
    42    98   100   am
    43    85    79   am
    44    10    11    1
    45    12    11    2
    46    79    78    1
    47    79    80    2
    48    11    13   am
    49    51    50    2
    50    78    77    1
    51    78    81    1
    52    84    82   am
    53    50    49    1
    54    53    52    1
    55    65    66    2
    56    65    64    1
    57    81    82    1
    58    13    14    1
    59    82    83    2
    60    64    63    1
    61    64    67    1
    62    14    15    1
    63    49    52    1
    64    49    48    1
    65    24    22    1
    66    52    54    1
    67    35    34    1
    68    35    36    1
    69    68    67    1
    70    22    21    1
    71    15    16    2
    72    67    69    1
    73    34    33    1
    74    17    18    1
    75    21    18    1
    76    21    23    1
    77    18    19    1
    78    33    30    1
    79    28    27    2
    80    30    29    1
    81    30    31    1
    82    27    29   am
    83    27    26    1
    84    26    25    1
    85    37    31   am
    86    37    38    1
    87    19    20    2
    88    42    41    1
    89    42    43    1
    90    41    38    1
    91    31    32    2
    92    47    45    1
    93    44    45    2
    94    44    43    1
    95    40    39    2
    96    38    39    1
    97    45    46    1
