@<TRIPOS>MOLECULE
tmp/2bufK00.pdb
 106 98 0 0 0
SMALL
GASTEIGER

@<TRIPOS>ATOM
      1  N        -25.1090   30.1710 -101.4630 N.3    32  LYS32      -0.1245
      2  CA       -25.4270   29.8350 -102.8470 C.3    32  LYS32       0.1561
      3  C        -24.7770   30.8660 -103.7630 C.2    32  LYS32       0.2260
      4  O        -24.9600   32.0740 -103.6030 O.2    32  LYS32      -0.2867
      5  CB       -26.9520   29.7890 -103.0540 C.3    32  LYS32       0.0271
      6  CG       -27.4230   29.4090 -104.4650 C.3    32  LYS32       0.0035
      7  CD       -27.3260   30.5950 -105.4180 C.3    32  LYS32       0.0206
      8  CE       -28.1310   30.3860 -106.6960 C.3    32  LYS32       0.1093
      9  NZ       -28.1450   31.6200 -107.5470 N.3    32  LYS32      -0.1314
     10  N        -24.6240   27.4630 -109.0980 N.3    66  GLY66      -0.1210
     11  CA       -25.4250   27.2460 -110.2910 C.3    66  GLY66       0.1956
     12  C        -24.4330   27.0520 -111.4280 C.2    66  GLY66       0.2612
     13  O        -23.2500   26.8160 -111.1700 O.2    66  GLY66      -0.2717
     14  N        -24.8850   27.1500 -112.6770 N.am   67  GLY67      -0.1942
     15  CA       -23.9680   26.9780 -113.7940 C.3    67  GLY67       0.2014
     16  C        -24.5670   27.2750 -115.1580 C.2    67  GLY67       0.2639
     17  O        -24.5510   26.4250 -116.0480 O.2    67  GLY67      -0.2714
     18  N        -25.0830   28.4870 -115.3310 N.am   68  GLY68      -0.1954
     19  CA       -25.6920   28.8620 -116.5960 C.3    68  GLY68       0.1869
     20  C        -24.7640   28.8950 -117.8010 C.2    68  GLY68       0.2309
     21  O        -25.0210   28.2080 -118.7920 O.2    68  GLY68      -0.2863
     22  N        -22.3220   25.4470 -118.9330 N.3    71  ILE71      -0.1245
     23  CA       -23.1600   24.3850 -119.5140 C.3    71  ILE71       0.1561
     24  C        -23.5670   24.8200 -120.9190 C.2    71  ILE71       0.2260
     25  O        -23.5110   24.0390 -121.8740 O.2    71  ILE71      -0.2867
     26  CB       -24.4730   24.1460 -118.6960 C.3    71  ILE71       0.0252
     27  CG1      -24.1800   23.3630 -117.4120 C.3    71  ILE71       0.0019
     28  CG2      -25.4850   23.3810 -119.5480 C.3    71  ILE71       0.0019
     29  CD1      -25.2910   23.3770 -116.3890 C.3    71  ILE71       0.0001
     30  N        -34.8660   24.7720 -115.5940 N.3    84  ARG84      -0.1245
     31  CA       -34.5910   24.4110 -116.9780 C.3    84  ARG84       0.1563
     32  C        -35.3470   23.1600 -117.3800 C.2    84  ARG84       0.2260
     33  O        -35.0600   22.0720 -116.8730 O.2    84  ARG84      -0.2867
     34  CB       -33.1010   24.1370 -117.2160 C.3    84  ARG84       0.0307
     35  CG       -32.8530   23.6200 -118.6390 C.3    84  ARG84       0.0489
     36  CD       -31.5900   22.7920 -118.7770 C.3    84  ARG84       0.2205
     37  NE       -30.3900   23.6010 -118.6050 N.pl3  84  ARG84      -0.0865
     38  CZ       -30.0610   24.6210 -119.3890 C.cat  84  ARG84       0.5346
     39  NH1      -30.8410   24.9560 -120.4060 N.pl3  84  ARG84       0.1354
     40  NH2      -28.9560   25.3130 -119.1500 N.pl3  84  ARG84       0.1354
     41  N        -25.8780   18.8730 -118.7900 N.3    94  VAL94      -0.1245
     42  CA       -26.0260   19.6660 -117.5850 C.3    94  VAL94       0.1561
     43  C        -25.2460   18.9870 -116.4650 C.2    94  VAL94       0.2260
     44  O        -24.4160   19.6110 -115.8040 O.2    94  VAL94      -0.2867
     45  CB       -27.5280   19.8010 -117.1910 C.3    94  VAL94       0.0252
     46  CG1      -27.6820   19.8210 -115.6850 C.3    94  VAL94       0.0019
     47  CG2      -28.1010   21.0810 -117.7790 C.3    94  VAL94       0.0019
     48  N        -22.1070   20.9940 -114.8160 N.3    98  LEU98      -0.1245
     49  CA       -22.2820   21.3590 -113.4130 C.3    98  LEU98       0.1561
     50  C        -21.3040   20.6820 -112.4690 C.2    98  LEU98       0.2260
     51  O        -20.4890   21.3450 -111.8180 O.2    98  LEU98      -0.2867
     52  CB       -23.7150   21.0510 -112.9530 C.3    98  LEU98       0.0270
     53  CG       -24.8180   22.0000 -113.4420 C.3    98  LEU98       0.0019
     54  CD1      -26.1530   21.6230 -112.8370 C.3    98  LEU98       0.0001
     55  CD2      -24.4770   23.4190 -113.0400 C.3    98  LEU98       0.0001
     56  N        -36.7520   18.8290 -113.9870 N.3   135  VAL135     -0.1245
     57  CA       -36.6400   19.6640 -112.7900 C.3   135  VAL135      0.1561
     58  C        -37.3210   18.9180 -111.6410 C.2   135  VAL135      0.2260
     59  O        -38.5210   18.6730 -111.6490 O.2   135  VAL135     -0.2867
     60  CB       -37.2850   21.0140 -113.0430 C.3   135  VAL135      0.0252
     61  CG1      -37.2030   21.9200 -111.8190 C.3   135  VAL135      0.0019
     62  CG2      -36.5480   21.6990 -114.1960 C.3   135  VAL135      0.0019
     63  N        -26.1870   21.7410 -108.1820 N.3   160  PRO160     -0.2116
     64  CA       -27.6500   21.6630 -108.3170 C.3   160  PRO160      0.1372
     65  C        -28.1630   20.4570 -109.1090 C.2   160  PRO160      0.2244
     66  O        -28.8100   20.6320 -110.1380 O.2   160  PRO160     -0.2868
     67  CB       -28.0060   22.9710 -109.0320 C.3   160  PRO160      0.0268
     68  CG       -26.9520   23.8900 -108.6230 C.3   160  PRO160      0.0207
     69  CD       -25.7030   23.0380 -108.6860 C.3   160  PRO160      0.0892
     70  N        -32.5650   18.1320 -112.5740 N.3   171  ASN171     -0.1225
     71  CA       -31.9030   19.4120 -112.5370 C.3   171  ASN171      0.1785
     72  C        -32.7810   20.2420 -111.6220 C.2   171  ASN171      0.2597
     73  O        -33.9880   20.3210 -111.8410 O.2   171  ASN171     -0.2718
     74  CB       -31.8860   19.9930 -113.9430 C.3   171  ASN171      0.1169
     75  CG       -30.8180   21.0350 -114.1290 C.2   171  ASN171      0.2627
     76  OD1      -30.4720   21.7630 -113.1990 O.2   171  ASN171     -0.2716
     77  ND2      -30.2940   21.1260 -115.3430 N.am  171  ASN171     -0.0877
     78  N        -32.1910   20.8500 -110.5960 N.am  172  ILE172     -0.1966
     79  CA       -32.9750   21.6520 -109.6620 C.3   172  ILE172      0.1727
     80  C        -32.4020   23.0420 -109.3730 C.2   172  ILE172      0.2616
     81  O        -31.1880   23.2120 -109.2710 O.2   172  ILE172     -0.2715
     82  CB       -33.1380   20.9310 -108.3250 C.3   172  ILE172      0.0290
     83  CG1      -33.4700   19.4530 -108.5330 C.3   172  ILE172      0.0022
     84  CG2      -34.2740   21.5380 -107.6000 C.3   172  ILE172      0.0023
     85  CD1      -33.4870   18.6540 -107.2430 C.3   172  ILE172      0.0001
     86  N        -33.2810   24.0310 -109.2200 N.am  173  ASN173     -0.1958
     87  CA       -32.8470   25.4000 -108.9430 C.3   173  ASN173      0.1819
     88  C        -31.8410   25.4240 -107.7750 C.2   173  ASN173      0.2621
     89  O        -32.0600   24.7860 -106.7430 O.2   173  ASN173     -0.2715
     90  CB       -34.0660   26.2890 -108.6400 C.3   173  ASN173      0.1195
     91  CG       -33.7470   27.7780 -108.7210 C.2   173  ASN173      0.2630
     92  OD1      -34.5860   28.6230 -108.3970 O.2   173  ASN173     -0.2716
     93  ND2      -32.5340   28.1030 -109.1590 N.am  173  ASN173     -0.0877
     94  N        -30.7390   26.1560 -107.9610 N.am  174  ALA174     -0.1963
     95  CA       -29.6630   26.2760 -106.9700 C.3   174  ALA174      0.1728
     96  C        -30.0930   27.0110 -105.7110 C.2   174  ALA174      0.2616
     97  O        -29.5520   26.7770 -104.6280 O.2   174  ALA174     -0.2715
     98  CB       -28.4540   26.9830 -107.5930 C.3   174  ALA174      0.0334
     99  N        -31.0530   27.9150 -105.8590 N.am  175  ASP175     -0.1971
    100  CA       -31.5580   28.6660 -104.7210 C.3   175  ASP175      0.1709
    101  C        -32.2640   27.6380 -103.8380 C.2   175  ASP175      0.2293
    102  O        -31.9820   27.5110 -102.6450 O.2   175  ASP175     -0.2864
    103  CB       -32.5540   29.7380 -105.1900 C.3   175  ASP175      0.1436
    104  CG       -32.2000   30.3230 -106.5610 C.2   175  ASP175      0.3671
    105  OD1      -31.0110   30.2850 -106.9460 O.co2 175  ASP175     -0.2456
    106  OD2      -33.1160   30.8330 -107.2480 O.co2 175  ASP175     -0.2456
@<TRIPOS>BOND
     1    25    24    2
     2    24    23    1
     3    39    38    1
     4    28    26    1
     5    23    22    1
     6    23    26    1
     7    38    40    1
     8    38    37    2
     9    21    20    2
    10    41    42    1
    11    36    35    1
    12    36    37    1
    13    26    27    1
    14    35    34    1
    15    20    19    1
    16    47    45    1
    17    42    45    1
    18    42    43    1
    19    27    29    1
    20    32    31    1
    21    32    33    2
    22    34    31    1
    23    45    46    1
    24    31    30    1
    25    19    18    1
    26    43    44    2
    27    17    16    2
    28    77    75   am
    29    18    16   am
    30    16    15    1
    31    48    49    1
    32    62    60    1
    33    75    74    1
    34    75    76    2
    35    56    57    1
    36    74    71    1
    37    15    14    1
    38    53    55    1
    39    53    52    1
    40    53    54    1
    41    49    52    1
    42    49    50    1
    43    60    57    1
    44    60    61    1
    45    57    58    1
    46    14    12   am
    47    70    71    1
    48    71    72    1
    49    50    51    2
    50    73    72    2
    51    59    58    2
    52    72    78   am
    53    12    13    2
    54    12    11    1
    55    78    79    1
    56    11    10    1
    57    66    65    2
    58    79    80    1
    59    79    82    1
    60    80    81    2
    61    80    86   am
    62    86    87    1
    63    93    91   am
    64    65    64    1
    65    67    68    1
    66    67    64    1
    67    87    90    1
    68    87    88    1
    69    91    90    1
    70    91    92    2
    71    69    68    1
    72    69    63    1
    73    83    82    1
    74    83    85    1
    75    82    84    1
    76    64    63    1
    77    94    88   am
    78    94    95    1
    79    88    89    2
    80    98    95    1
    81     9     8    1
    82   106   104   ar
    83    95    96    1
    84   105   104   ar
    85     8     7    1
    86   104   103    1
    87    99    96   am
    88    99   100    1
    89    96    97    2
    90     7     6    1
    91   103   100    1
    92   100   101    1
    93     6     5    1
    94   101   102    2
    95     3     4    2
    96     3     2    1
    97     5     2    1
    98     2     1    1
