@<TRIPOS>MOLECULE
tmp/2bufC00.pdb
 124 118 0 0 0
SMALL
GASTEIGER

@<TRIPOS>ATOM
      1  N        -31.1420   43.3820  -19.8780 N.3    32  LYS32      -0.1245
      2  CA       -31.0230   41.9900  -20.2190 C.3    32  LYS32       0.1561
      3  C        -30.7100   41.9130  -21.6750 C.2    32  LYS32       0.2260
      4  O        -31.5280   42.2370  -22.5180 O.2    32  LYS32      -0.2867
      5  CB       -32.2920   41.2020  -19.9110 C.3    32  LYS32       0.0271
      6  CG       -32.2360   39.7040  -20.2970 C.3    32  LYS32       0.0035
      7  CD       -32.4760   39.4730  -21.7930 C.3    32  LYS32       0.0206
      8  CE       -32.6110   38.0200  -22.1130 C.3    32  LYS32       0.1093
      9  NZ       -33.0070   37.7890  -23.5490 N.3    32  LYS32      -0.1314
     10  N        -29.4910   36.6660  -26.2580 N.3    35  GLY35      -0.1210
     11  CA       -30.6260   36.2110  -27.0250 C.3    35  GLY35       0.1956
     12  C        -30.0990   35.3080  -28.1010 C.2    35  GLY35       0.2611
     13  O        -29.0500   34.7130  -27.9280 O.2    35  GLY35      -0.2717
     14  N        -30.8290   35.1990  -29.2040 N.am   36  ASN36      -0.1974
     15  CA       -30.4680   34.3240  -30.3300 C.3    36  ASN36       0.1688
     16  C        -29.8290   35.1040  -31.4570 C.2    36  ASN36       0.2292
     17  O        -28.7510   34.7730  -31.9550 O.2    36  ASN36      -0.2864
     18  CB       -31.7120   33.7050  -30.9860 C.3    36  ASN36       0.1181
     19  CG       -32.4350   32.7390  -30.1130 C.2    36  ASN36       0.2629
     20  OD1      -32.0790   31.5640  -30.0480 O.2    36  ASN36      -0.2716
     21  ND2      -33.4820   33.2150  -29.4460 N.am   36  ASN36      -0.0877
     22  N        -34.4980   36.6320  -18.2380 N.3   198  ASP198     -0.1239
     23  CA       -35.4140   37.7420  -18.0470 C.3   198  ASP198      0.1674
     24  C        -35.8200   37.8600  -16.5870 C.2   198  ASP198      0.2266
     25  O        -35.8170   38.9520  -16.0210 O.2   198  ASP198     -0.2867
     26  CB       -36.6780   37.5780  -18.8850 C.3   198  ASP198      0.1410
     27  CG       -36.4520   37.8760  -20.3460 C.2   198  ASP198      0.3668
     28  OD1      -37.4190   37.7620  -21.1340 O.co2 198  ASP198     -0.2456
     29  OD2      -35.3100   38.2290  -20.7140 O.co2 198  ASP198     -0.2456
     30  N        -35.3140   41.9850  -26.7480 N.3   217  THR217     -0.1203
     31  CA       -35.8480   40.7650  -27.3030 C.3   217  THR217      0.1994
     32  C        -35.5820   40.8050  -28.7860 C.2   217  THR217      0.2618
     33  O        -34.8940   41.6940  -29.2450 O.2   217  THR217     -0.2717
     34  CB       -37.3400   40.6750  -27.0270 C.3   217  THR217      0.1784
     35  OG1      -37.8890   39.6220  -27.8120 O.3   217  THR217     -0.2211
     36  CG2      -38.0260   41.9730  -27.3650 C.3   217  THR217      0.0376
     37  N        -36.1070   39.8550  -29.5470 N.am  218  ASN218     -0.1960
     38  CA       -35.8670   39.8650  -30.9910 C.3   218  ASN218      0.1819
     39  C        -37.1370   40.0600  -31.7970 C.2   218  ASN218      0.2621
     40  O        -37.3210   39.3950  -32.8100 O.2   218  ASN218     -0.2715
     41  CB       -35.2220   38.5620  -31.4350 C.3   218  ASN218      0.1195
     42  CG       -33.9990   38.2230  -30.6330 C.2   218  ASN218      0.2630
     43  OD1      -32.8950   38.6540  -30.9480 O.2   218  ASN218     -0.2716
     44  ND2      -34.1910   37.4470  -29.5750 N.am  218  ASN218     -0.0877
     45  N        -37.9980   40.9770  -31.3760 N.am  219  ILE219     -0.1977
     46  CA       -39.2280   41.1740  -32.1040 C.3   219  ILE219      0.1596
     47  C        -39.7090   42.6200  -32.1960 C.2   219  ILE219      0.2287
     48  O        -40.7780   42.8880  -32.7330 O.2   219  ILE219     -0.2864
     49  CB       -40.3390   40.3030  -31.4910 C.3   219  ILE219      0.0276
     50  CG1      -41.5620   40.2700  -32.4150 C.3   219  ILE219      0.0022
     51  CG2      -40.6880   40.8020  -30.1120 C.3   219  ILE219      0.0022
     52  CD1      -41.5720   39.0900  -33.3910 C.3   219  ILE219      0.0001
     53  N        -40.7830   45.0030  -29.8230 N.3   221  GLY221     -0.1210
     54  CA       -41.9960   45.2940  -29.0720 C.3   221  GLY221      0.1956
     55  C        -43.0020   44.1670  -28.9510 C.2   221  GLY221      0.2612
     56  O        -42.9480   43.2150  -29.7230 O.2   221  GLY221     -0.2717
     57  N        -43.8950   44.2630  -27.9630 N.am  222  LEU222     -0.1965
     58  CA       -44.9580   43.2660  -27.7850 C.3   222  LEU222      0.1728
     59  C        -46.0500   43.6590  -28.7610 C.2   222  LEU222      0.2616
     60  O        -46.7290   44.6680  -28.5680 O.2   222  LEU222     -0.2715
     61  CB       -45.5180   43.2700  -26.3500 C.3   222  LEU222      0.0311
     62  CG       -47.0330   43.2610  -26.0350 C.3   222  LEU222      0.0022
     63  CD1      -47.8210   42.3330  -26.9490 C.3   222  LEU222      0.0001
     64  CD2      -47.2140   42.8370  -24.5770 C.3   222  LEU222      0.0001
     65  N        -46.2070   42.8600  -29.8100 N.am  223  MET223     -0.1977
     66  CA       -47.2010   43.1090  -30.8450 C.3   223  MET223      0.1605
     67  C        -48.6100   42.6220  -30.4570 C.2   223  MET223      0.2287
     68  O        -48.7630   41.7310  -29.6050 O.2   223  MET223     -0.2864
     69  CB       -46.7450   42.4260  -32.1460 C.3   223  MET223      0.0413
     70  CG       -45.5170   43.0710  -32.7950 C.3   223  MET223      0.0598
     71  SD       -44.2610   41.9410  -33.4700 S.3   223  MET223     -0.1393
     72  CE       -45.2560   40.7760  -34.5190 C.3   223  MET223      0.0692
     73  N        -53.1860   36.5530  -27.8200 N.3   246  THR246     -0.1203
     74  CA       -52.1270   37.3970  -28.3950 C.3   246  THR246      0.1994
     75  C        -50.7740   37.3540  -27.6580 C.2   246  THR246      0.2618
     76  O        -49.7240   37.4370  -28.2860 O.2   246  THR246     -0.2717
     77  CB       -52.5980   38.8930  -28.6090 C.3   246  THR246      0.1784
     78  OG1      -51.7230   39.7900  -27.9190 O.3   246  THR246     -0.2211
     79  CG2      -54.0210   39.1000  -28.1450 C.3   246  THR246      0.0376
     80  N        -50.7760   37.2160  -26.3440 N.am  247  ILE247     -0.1965
     81  CA       -49.5080   37.1240  -25.6420 C.3   247  ILE247      0.1727
     82  C        -49.2700   35.6470  -25.3710 C.2   247  ILE247      0.2616
     83  O        -50.0510   35.0120  -24.6620 O.2   247  ILE247     -0.2715
     84  CB       -49.5350   37.8710  -24.2980 C.3   247  ILE247      0.0290
     85  CG1      -49.4770   39.3870  -24.5360 C.3   247  ILE247      0.0022
     86  CG2      -48.3910   37.3770  -23.4220 C.3   247  ILE247      0.0023
     87  CD1      -49.7390   40.2080  -23.3000 C.3   247  ILE247      0.0001
     88  N        -48.1950   35.0940  -25.9220 N.am  248  TYR248     -0.1960
     89  CA       -47.9120   33.6680  -25.7330 C.3   248  TYR248      0.1771
     90  C        -46.4360   33.3070  -25.8310 C.2   248  TYR248      0.2620
     91  O        -45.5750   34.1590  -26.0270 O.2   248  TYR248     -0.2715
     92  CB       -48.6640   32.8550  -26.7810 C.3   248  TYR248      0.0574
     93  CG       -48.1690   33.0940  -28.2010 C.ar  248  TYR248     -0.0198
     94  CD1      -47.0690   32.3920  -28.7110 C.ar  248  TYR248     -0.0009
     95  CD2      -48.7740   34.0600  -29.0150 C.ar  248  TYR248     -0.0009
     96  CE1      -46.5850   32.6540  -29.9960 C.ar  248  TYR248      0.0417
     97  CE2      -48.2980   34.3300  -30.2930 C.ar  248  TYR248      0.0417
     98  CZ       -47.2070   33.6310  -30.7770 C.ar  248  TYR248      0.1957
     99  OH       -46.7320   33.9510  -32.0290 O.3   248  TYR248     -0.2866
    100  N        -46.1460   32.0220  -25.7050 N.am  249  GLY249     -0.1940
    101  CA       -44.7700   31.5810  -25.8140 C.3   249  GLY249      0.2014
    102  C        -43.8540   32.1670  -24.7650 C.2   249  GLY249      0.2639
    103  O        -44.1380   32.0940  -23.5690 O.2   249  GLY249     -0.2714
    104  N        -42.7490   32.7480  -25.2130 N.am  250  GLY250     -0.1939
    105  CA       -41.8080   33.3180  -24.2730 C.3   250  GLY250      0.2014
    106  C        -42.1020   34.7690  -23.9590 C.2   250  GLY250      0.2638
    107  O        -41.4260   35.3840  -23.1320 O.2   250  GLY250     -0.2714
    108  N        -43.0990   35.3350  -24.6220 N.am  251  MET251     -0.1976
    109  CA       -43.4400   36.7130  -24.3640 C.3   251  MET251      0.1605
    110  C        -44.2290   36.7390  -23.0830 C.2   251  MET251      0.2287
    111  O        -44.5130   37.7970  -22.5340 O.2   251  MET251     -0.2864
    112  CB       -44.3000   37.2570  -25.4750 C.3   251  MET251      0.0413
    113  CG       -44.6360   38.7290  -25.3280 C.3   251  MET251      0.0598
    114  SD       -43.2160   39.8040  -25.6660 S.3   251  MET251     -0.1393
    115  CE       -43.0130   40.4690  -24.1430 C.3   251  MET251      0.0692
    116  N        -41.9030   37.3460  -19.9010 N.3   254  LYS254     -0.1245
    117  CA       -41.3510   38.6800  -20.0740 C.3   254  LYS254      0.1561
    118  C        -42.2440   39.7920  -19.4990 C.2   254  LYS254      0.2260
    119  O        -41.7600   40.6970  -18.8210 O.2   254  LYS254     -0.2867
    120  CB       -41.0910   38.8970  -21.5630 C.3   254  LYS254      0.0271
    121  CG       -40.1290   39.9990  -21.9170 C.3   254  LYS254      0.0035
    122  CD       -39.6700   39.8760  -23.3760 C.3   254  LYS254      0.0206
    123  CE       -38.7910   38.6550  -23.5810 C.3   254  LYS254      0.1093
    124  NZ       -38.3170   38.5370  -24.9850 N.3   254  LYS254     -0.1314
@<TRIPOS>BOND
     1    72    71    1
     2    71    70    1
     3    52    50    1
     4    40    39    2
     5    70    69    1
     6    48    47    2
     7    50    49    1
     8    47    46    1
     9    69    66    1
    10    46    49    1
    11    46    45    1
    12    99    98    1
    13    17    16    2
    14    39    45   am
    15    39    38    1
    16    49    51    1
    17    16    15    1
    18    41    38    1
    19    41    42    1
    20    38    37    1
    21    18    15    1
    22    18    19    1
    23    43    42    2
    24    66    67    1
    25    66    65    1
    26    98    97   ar
    27    98    96   ar
    28    42    44   am
    29    67    68    2
    30    15    14    1
    31    97    95   ar
    32    19    20    2
    33    19    21   am
    34    96    94   ar
    35    53    54    1
    36    65    59   am
    37    56    55    2
    38    37    32   am
    39    33    32    2
    40    14    12   am
    41    54    55    1
    42    95    93   ar
    43    55    57   am
    44    32    31    1
    45    59    60    2
    46    59    58    1
    47    94    93   ar
    48    77    74    1
    49    77    79    1
    50    77    78    1
    51    74    73    1
    52    74    75    1
    53    76    75    2
    54    93    92    1
    55    12    13    2
    56    12    11    1
    57    57    58    1
    58    35    34    1
    59    58    61    1
    60    75    80   am
    61    36    34    1
    62    31    34    1
    63    31    30    1
    64    11    10    1
    65    63    62    1
    66    92    89    1
    67    61    62    1
    68    80    81    1
    69    62    64    1
    70    91    90    2
    71    88    89    1
    72    88    82   am
    73    90    89    1
    74    90   100   am
    75   101   100    1
    76   101   102    1
    77   114   113    1
    78   114   115    1
    79    81    82    1
    80    81    84    1
    81   112   113    1
    82   112   109    1
    83    82    83    2
    84   104   102   am
    85   104   105    1
    86   124   123    1
    87   102   103    2
    88   108   109    1
    89   108   106   am
    90    85    84    1
    91    85    87    1
    92   109   110    1
    93    84    86    1
    94   105   106    1
    95   106   107    2
    96   123   122    1
    97     9     8    1
    98   122   121    1
    99   110   111    2
   100     4     3    2
   101     8     7    1
   102   121   120    1
   103     7     6    1
   104     3     2    1
   105   120   117    1
   106    28    27   ar
   107    29    27   ar
   108    27    26    1
   109     6     5    1
   110     2     5    1
   111     2     1    1
   112   117   116    1
   113   117   118    1
   114   118   119    2
   115    26    23    1
   116    22    23    1
   117    23    24    1
   118    24    25    2
