@<TRIPOS>MOLECULE
tmp/2bugA00.pdb
 105 98 0 0 0
SMALL
GASTEIGER

@<TRIPOS>ATOM
      1  N        -13.7240   -0.1590   -3.2430 N.3    16  LYS16      -0.1245
      2  CA       -12.3570   -0.3850   -3.6860 C.3    16  LYS16       0.1561
      3  C        -12.1480    0.2620   -5.0530 C.2    16  LYS16       0.2260
      4  O        -11.1560    0.9530   -5.2890 O.2    16  LYS16      -0.2867
      5  CB       -12.0880   -1.8880   -3.7840 C.3    16  LYS16       0.0271
      6  CG       -10.6690   -2.2460   -4.1950 C.3    16  LYS16       0.0035
      7  CD       -10.5650   -3.7170   -4.5680 C.3    16  LYS16       0.0206
      8  CE       -11.2440   -4.0020   -5.9000 C.3    16  LYS16       0.1093
      9  NZ       -10.4740   -3.4520   -7.0460 N.3    16  LYS16      -0.1314
     10  N        -10.4310    3.8040   -5.9380 N.3    20  ASN20      -0.1240
     11  CA        -9.4720    3.7760   -7.0360 C.3    20  ASN20       0.1653
     12  C         -9.7880    4.9200   -8.0000 C.2    20  ASN20       0.2266
     13  O         -8.8980    5.6140   -8.4830 O.2    20  ASN20      -0.2867
     14  CB        -9.5510    2.4160   -7.7510 C.3    20  ASN20       0.1155
     15  CG        -8.4840    2.2050   -8.8140 C.2    20  ASN20       0.2627
     16  OD1       -8.0290    3.1390   -9.4650 O.2    20  ASN20      -0.2716
     17  ND2       -8.0740    0.9570   -8.9910 N.am   20  ASN20      -0.0877
     18  N         -8.5610    7.9500   -6.4240 N.3    23  PHE23      -0.1227
     19  CA        -7.1220    8.0310   -6.5940 C.3    23  PHE23       0.1736
     20  C         -6.8110    8.5070   -8.0110 C.2    23  PHE23       0.2595
     21  O         -5.9140    9.3230   -8.2250 O.2    23  PHE23      -0.2718
     22  CB        -6.4730    6.6740   -6.3170 C.3    23  PHE23       0.0547
     23  CG        -4.9850    6.6750   -6.5020 C.ar   23  PHE23      -0.0202
     24  CD1       -4.1450    7.1360   -5.5000 C.ar   23  PHE23      -0.0042
     25  CD2       -4.4250    6.2160   -7.6820 C.ar   23  PHE23      -0.0042
     26  CE1       -2.7790    7.1370   -5.6740 C.ar   23  PHE23      -0.0003
     27  CE2       -3.0600    6.2150   -7.8610 C.ar   23  PHE23      -0.0003
     28  CZ        -2.2330    6.6760   -6.8560 C.ar   23  PHE23      -0.0000
     29  N         -7.5840    8.0010   -8.9720 N.am   24  LYS24      -0.1980
     30  CA        -7.5090    8.4590  -10.3570 C.3    24  LYS24       0.1596
     31  C         -7.9930    9.9020  -10.4700 C.2    24  LYS24       0.2287
     32  O         -7.6020   10.6310  -11.3820 O.2    24  LYS24      -0.2864
     33  CB        -8.3520    7.5590  -11.2660 C.3    24  LYS24       0.0298
     34  CG        -7.8140    6.1430  -11.4010 C.3    24  LYS24       0.0038
     35  CD        -8.8080    5.2330  -12.1120 C.3    24  LYS24       0.0206
     36  CE        -9.1650    5.7530  -13.4970 C.3    24  LYS24       0.1093
     37  NZ       -10.2000    4.9110  -14.1540 N.3    24  LYS24      -0.1314
     38  N        -12.3650    3.6430    1.0740 N.3    35  TYR35      -0.1241
     39  CA       -11.6890    2.4460    1.5520 C.3    35  TYR35       0.1605
     40  C        -12.0870    2.1460    2.9900 C.2    35  TYR35       0.2264
     41  O        -12.2440    0.9870    3.3590 O.2    35  TYR35      -0.2867
     42  CB       -10.1670    2.5630    1.4290 C.3    35  TYR35       0.0534
     43  CG        -9.6480    2.1870    0.0600 C.ar   35  TYR35      -0.0201
     44  CD1      -10.0250    0.9880   -0.5320 C.ar   35  TYR35      -0.0009
     45  CD2       -8.7880    3.0220   -0.6390 C.ar   35  TYR35      -0.0009
     46  CE1       -9.5580    0.6320   -1.7820 C.ar   35  TYR35       0.0417
     47  CE2       -8.3170    2.6730   -1.8900 C.ar   35  TYR35       0.0417
     48  CZ        -8.7060    1.4760   -2.4560 C.ar   35  TYR35       0.1957
     49  OH        -8.2410    1.1220   -3.7020 O.3    35  TYR35      -0.2866
     50  N         -6.1250   -5.1250    0.7620 N.3    47  ILE47      -0.1245
     51  CA        -6.3790   -4.2320   -0.3530 C.3    47  ILE47       0.1561
     52  C         -6.8630   -2.8690    0.1380 C.2    47  ILE47       0.2260
     53  O         -6.3640   -1.8250   -0.2830 O.2    47  ILE47      -0.2867
     54  CB        -7.4310   -4.8470   -1.2930 C.3    47  ILE47       0.0252
     55  CG1       -6.8810   -6.1310   -1.9150 C.3    47  ILE47       0.0019
     56  CG2       -7.8390   -3.8540   -2.3670 C.3    47  ILE47       0.0019
     57  CD1       -5.7250   -5.8900   -2.8510 C.3    47  ILE47       0.0001
     58  N         -4.2090    0.3410    0.2060 N.3    51  ASN51      -0.1240
     59  CA        -4.3410    1.5390   -0.6110 C.3    51  ASN51       0.1653
     60  C         -4.7960    2.7190    0.2270 C.2    51  ASN51       0.2266
     61  O         -4.6500    3.8670   -0.1820 O.2    51  ASN51      -0.2867
     62  CB        -5.2880    1.3290   -1.7850 C.3    51  ASN51       0.1155
     63  CG        -4.7270    0.3840   -2.8250 C.2    51  ASN51       0.2627
     64  OD1       -3.5100    0.2130   -2.9440 O.2    51  ASN51      -0.2716
     65  ND2       -5.6070   -0.2110   -3.6080 N.am   51  ASN51      -0.0877
     66  N         -1.6200    3.7630    1.3460 N.3    54  LEU54      -0.1245
     67  CA        -1.0700    4.3190    0.1150 C.3    54  LEU54       0.1561
     68  C         -1.6110    5.7340   -0.1190 C.2    54  LEU54       0.2260
     69  O         -0.8950    6.6110   -0.5990 O.2    54  LEU54      -0.2867
     70  CB        -1.4070    3.3700   -1.0490 C.3    54  LEU54       0.0270
     71  CG        -0.9050    3.7460   -2.4530 C.3    54  LEU54       0.0019
     72  CD1       -1.9470    4.5690   -3.1930 C.3    54  LEU54       0.0001
     73  CD2        0.4300    4.4810   -2.3930 C.3    54  LEU54       0.0001
     74  N          0.6900  -10.3700    0.8840 N.3    79  TYR79      -0.1241
     75  CA         0.2540   -9.4330   -0.1310 C.3    79  TYR79       0.1605
     76  C          1.4600   -8.5930   -0.5270 C.2    79  TYR79       0.2264
     77  O          1.9010   -7.7370    0.2390 O.2    79  TYR79      -0.2867
     78  CB        -0.9050   -8.5630    0.3880 C.3    79  TYR79       0.0534
     79  CG        -1.4130   -7.5260   -0.5980 C.ar   79  TYR79      -0.0201
     80  CD1       -1.4570   -7.7830   -1.9640 C.ar   79  TYR79      -0.0009
     81  CD2       -1.8380   -6.2790   -0.1550 C.ar   79  TYR79      -0.0009
     82  CE1       -1.9070   -6.8280   -2.8560 C.ar   79  TYR79       0.0417
     83  CE2       -2.2850   -5.3190   -1.0420 C.ar   79  TYR79       0.0417
     84  CZ        -2.3160   -5.5980   -2.3900 C.ar   79  TYR79       0.1957
     85  OH        -2.7440   -4.6330   -3.2740 O.3    79  TYR79      -0.2866
     86  N          2.1510   -6.2080   -2.7400 N.3    81  LYS81      -0.1245
     87  CA         1.9520   -4.7670   -2.7910 C.3    81  LYS81       0.1561
     88  C          1.6550   -4.2140   -1.4000 C.2    81  LYS81       0.2260
     89  O          1.7740   -3.0160   -1.1600 O.2    81  LYS81      -0.2867
     90  CB         0.8250   -4.4250   -3.7670 C.3    81  LYS81       0.0271
     91  CG         1.1430   -4.8180   -5.2000 C.3    81  LYS81       0.0035
     92  CD        -0.0670   -4.6870   -6.1070 C.3    81  LYS81       0.0206
     93  CE        -0.5540   -3.2510   -6.2090 C.3    81  LYS81       0.1093
     94  NZ        -1.6770   -3.1260   -7.1720 N.3    81  LYS81      -0.1314
     95  N          3.6310   -1.1970    0.5630 N.3    85  ARG85      -0.1245
     96  CA         3.0200   -0.0610    1.2510 C.3    85  ARG85       0.1563
     97  C          3.7470    0.2290    2.5600 C.2    85  ARG85       0.2260
     98  O          4.0770    1.3780    2.8600 O.2    85  ARG85      -0.2867
     99  CB         1.5380   -0.3220    1.5440 C.3    85  ARG85       0.0307
    100  CG         0.6920   -0.6140    0.3180 C.3    85  ARG85       0.0489
    101  CD         0.7920    0.4900   -0.7210 C.3    85  ARG85       0.2205
    102  NE        -0.2050    0.3250   -1.7800 N.pl3  85  ARG85      -0.0865
    103  CZ         0.0380    0.5020   -3.0780 C.cat  85  ARG85       0.5346
    104  NH1        1.2640    0.8010   -3.4990 N.pl3  85  ARG85       0.1354
    105  NH2       -0.9470    0.3720   -3.9600 N.pl3  85  ARG85       0.1354
@<TRIPOS>BOND
     1    37    36    1
     2    36    35    1
     3    35    34    1
     4    34    33    1
     5    32    31    2
     6    33    30    1
     7    31    30    1
     8    30    29    1
     9    16    15    2
    10    17    15   am
    11    29    20   am
    12    15    14    1
    13    13    12    2
    14    21    20    2
    15    20    19    1
    16    12    11    1
    17    27    25   ar
    18    27    28   ar
    19    14    11    1
    20    25    23   ar
    21    94    93    1
    22     9     8    1
    23    11    10    1
    24    28    26   ar
    25    19    18    1
    26    19    22    1
    27    23    22    1
    28    23    24   ar
    29    93    92    1
    30    92    91    1
    31     8     7    1
    32    26    24   ar
    33     4     3    2
    34    91    90    1
    35     3     2    1
    36     7     6    1
    37     6     5    1
    38   105   103    1
    39     5     2    1
    40    90    87    1
    41    49    48    1
    42     2     1    1
    43    65    63   am
    44   104   103    1
    45    85    84    1
    46    72    71    1
    47   103   102    2
    48    64    63    2
    49    82    84   ar
    50    82    80   ar
    51    57    55    1
    52    63    62    1
    53    87    86    1
    54    87    88    1
    55    48    47   ar
    56    48    46   ar
    57    71    73    1
    58    71    70    1
    59    84    83   ar
    60    56    54    1
    61    80    79   ar
    62    55    54    1
    63    47    45   ar
    64    62    59    1
    65    46    44   ar
    66   102   101    1
    67    88    89    2
    68    54    51    1
    69    70    67    1
    70    83    81   ar
    71   101   100    1
    72    45    43   ar
    73    59    58    1
    74    59    60    1
    75    69    68    2
    76    79    81   ar
    77    79    78    1
    78    44    43   ar
    79    76    75    1
    80    76    77    2
    81    51    52    1
    82    51    50    1
    83    53    52    2
    84    61    60    2
    85    75    78    1
    86    75    74    1
    87    68    67    1
    88    43    42    1
    89    67    66    1
    90   100    99    1
    91    95    96    1
    92    38    39    1
    93    96    99    1
    94    96    97    1
    95    42    39    1
    96    39    40    1
    97    97    98    2
    98    40    41    2
