@<TRIPOS>MOLECULE
tmp/2buiA00.pdb
 108 104 0 0 0
SMALL
GASTEIGER

@<TRIPOS>ATOM
      1  N          6.8680   61.9450  102.8620 N.3   106  GLY106     -0.1210
      2  CA         5.7560   61.1450  103.3430 C.3   106  GLY106      0.1956
      3  C          4.6880   61.9430  104.0710 C.2   106  GLY106      0.2612
      4  O          3.5010   61.6540  103.9380 O.2   106  GLY106     -0.2717
      5  N          5.0950   62.9570  104.8310 N.am  107  GLY107     -0.1956
      6  CA         4.1150   63.7300  105.5680 C.3   107  GLY107      0.1869
      7  C          4.1250   65.2330  105.3940 C.2   107  GLY107      0.2309
      8  O          3.4650   65.9400  106.1610 O.2   107  GLY107     -0.2863
      9  N          4.4160   68.2010  109.3340 N.3   110  PRO110     -0.2116
     10  CA         3.5410   68.2540  110.5090 C.3   110  PRO110      0.1372
     11  C          3.9820   69.3830  111.4490 C.2   110  PRO110      0.2244
     12  O          3.1540   70.0670  112.0500 O.2   110  PRO110     -0.2868
     13  CB         3.7370   66.8810  111.1410 C.3   110  PRO110      0.0268
     14  CG         3.9700   65.9990  109.9470 C.3   110  PRO110      0.0207
     15  CD         4.9100   66.8300  109.1020 C.3   110  PRO110      0.0892
     16  N          3.7000   57.1870  101.2790 N.3   162  ALA162     -0.1231
     17  CA         4.1940   56.7620  102.5760 C.3   162  ALA162      0.1694
     18  C          5.6660   56.3530  102.5090 C.2   162  ALA162      0.2592
     19  O          6.4990   57.0930  101.9880 O.2   162  ALA162     -0.2718
     20  CB         3.3360   55.6110  103.1010 C.3   162  ALA162      0.0304
     21  N          5.9790   55.1700  103.0250 N.am  163  CYS163     -0.1970
     22  CA         7.3550   54.6840  103.0550 C.3   163  CYS163      0.1712
     23  C          7.8920   54.1930  101.7240 C.2   163  CYS163      0.2296
     24  O          8.9640   53.5960  101.6590 O.2   163  CYS163     -0.2864
     25  CB         7.4810   53.5900  104.1140 C.3   163  CYS163      0.0983
     26  SG         7.0240   54.1970  105.7490 S.3   163  CYS163     -0.0798
     27  N         12.4340   64.0290  104.3840 N.3   191  GLU191     -0.1245
     28  CA        11.4480   63.8890  105.4370 C.3   191  GLU191      0.1567
     29  C         12.0270   64.5330  106.6810 C.2   191  GLU191      0.2260
     30  O         13.2030   64.3460  106.9860 O.2   191  GLU191     -0.2867
     31  CB        11.1830   62.4100  105.7080 C.3   191  GLU191      0.0388
     32  CG         9.9090   62.1370  106.5020 C.3   191  GLU191      0.1160
     33  CD         8.6790   62.1230  105.6140 C.2   191  GLU191      0.3649
     34  OE1        8.5770   61.2100  104.7650 O.co2 191  GLU191     -0.2457
     35  OE2        7.8210   63.0230  105.7520 O.co2 191  GLU191     -0.2457
     36  N          5.2510   64.4390  114.3400 N.3   197  MET197     -0.1245
     37  CA         4.9390   63.3280  113.4520 C.3   197  MET197      0.1570
     38  C          5.2030   61.9860  114.1270 C.2   197  MET197      0.2261
     39  O          4.4000   61.0600  114.0280 O.2   197  MET197     -0.2867
     40  CB         5.7870   63.4280  112.1770 C.3   197  MET197      0.0387
     41  CG         5.4320   62.4230  111.0880 C.3   197  MET197      0.0595
     42  SD         6.7200   62.2880  109.8360 S.3   197  MET197     -0.1393
     43  CE         6.8520   63.9690  109.3000 C.3   197  MET197      0.0692
     44  N          2.7000   60.1010  116.3040 N.3   200  GLU200     -0.1231
     45  CA         1.5970   59.4630  115.6060 C.3   200  GLU200      0.1699
     46  C          1.9410   57.9890  115.3880 C.2   200  GLU200      0.2592
     47  O          1.0670   57.1240  115.3760 O.2   200  GLU200     -0.2718
     48  CB         1.3570   60.1650  114.2710 C.3   200  GLU200      0.0402
     49  CG         1.3300   61.6890  114.3910 C.3   200  GLU200      0.1161
     50  CD         0.9310   62.3750  113.1020 C.2   200  GLU200      0.3649
     51  OE1        1.4200   61.9570  112.0320 O.co2 200  GLU200     -0.2457
     52  OE2        0.1350   63.3380  113.1600 O.co2 200  GLU200     -0.2457
     53  N          3.2270   57.7070  115.2250 N.am  201  PHE201     -0.1976
     54  CA         3.6920   56.3390  115.0210 C.3   201  PHE201      0.1639
     55  C          3.7330   55.5920  116.3470 C.2   201  PHE201      0.2290
     56  O          3.4560   54.3920  116.4120 O.2   201  PHE201     -0.2864
     57  CB         5.0790   56.3530  114.3840 C.3   201  PHE201      0.0560
     58  CG         5.0630   56.7150  112.9360 C.ar  201  PHE201     -0.0200
     59  CD1        4.6680   55.7830  111.9800 C.ar  201  PHE201     -0.0042
     60  CD2        5.3970   57.9980  112.5230 C.ar  201  PHE201     -0.0042
     61  CE1        4.6060   56.1270  110.6280 C.ar  201  PHE201     -0.0003
     62  CE2        5.3370   58.3500  111.1730 C.ar  201  PHE201     -0.0003
     63  CZ         4.9400   57.4110  110.2260 C.ar  201  PHE201     -0.0000
     64  N         10.0230   49.9450  114.3770 N.3   229  PHE229     -0.1241
     65  CA        11.1170   50.6920  113.7610 C.3   229  PHE229      0.1605
     66  C         11.5250   51.9550  114.5130 C.2   229  PHE229      0.2264
     67  O         10.8170   52.4290  115.4020 O.2   229  PHE229     -0.2867
     68  CB        10.7790   51.0380  112.2940 C.3   229  PHE229      0.0534
     69  CG         9.6330   52.0120  112.1240 C.ar  229  PHE229     -0.0203
     70  CD1        9.8200   53.3790  112.3110 C.ar  229  PHE229     -0.0042
     71  CD2        8.3660   51.5590  111.7520 C.ar  229  PHE229     -0.0042
     72  CE1        8.7600   54.2820  112.1300 C.ar  229  PHE229     -0.0003
     73  CE2        7.3040   52.4500  111.5720 C.ar  229  PHE229     -0.0003
     74  CZ         7.5020   53.8140  111.7610 C.ar  229  PHE229     -0.0000
     75  N         11.1670   57.0700  106.5240 N.3   335  LEU335     -0.1245
     76  CA         9.8510   57.0890  105.8970 C.3   335  LEU335      0.1561
     77  C          9.8790   57.4540  104.4130 C.2   335  LEU335      0.2260
     78  O         10.2410   56.6320  103.5720 O.2   335  LEU335     -0.2867
     79  CB         8.9450   58.0630  106.6630 C.3   335  LEU335      0.0270
     80  CG         8.9520   57.8690  108.1910 C.3   335  LEU335      0.0019
     81  CD1        8.1740   58.9870  108.8840 C.3   335  LEU335      0.0001
     82  CD2        8.3500   56.5070  108.5320 C.3   335  LEU335      0.0001
     83  N          8.1130   49.5460  100.7890 N.3   390  PHE390     -0.1227
     84  CA         6.6860   49.3140  100.9750 C.3   390  PHE390      0.1736
     85  C          6.1320   50.3790  101.9100 C.2   390  PHE390      0.2596
     86  O          6.8640   50.9200  102.7370 O.2   390  PHE390     -0.2718
     87  CB         6.4530   47.9210  101.5680 C.3   390  PHE390      0.0547
     88  CG         7.1770   46.8190  100.8380 C.ar  390  PHE390     -0.0202
     89  CD1        7.1150   46.7220   99.4520 C.ar  390  PHE390     -0.0042
     90  CD2        7.9150   45.8690  101.5410 C.ar  390  PHE390     -0.0042
     91  CE1        7.7750   45.6940   98.7720 C.ar  390  PHE390     -0.0003
     92  CE2        8.5790   44.8350  100.8720 C.ar  390  PHE390     -0.0003
     93  CZ         8.5080   44.7490   99.4820 C.ar  390  PHE390     -0.0000
     94  N          4.8480   50.6920  101.7790 N.am  391  GLY391     -0.1942
     95  CA         4.2680   51.7030  102.6400 C.3   391  GLY391      0.2014
     96  C          2.8450   51.3980  103.0450 C.2   391  GLY391      0.2638
     97  O          2.2090   50.5060  102.4820 O.2   391  GLY391     -0.2714
     98  N          2.3490   52.1360  104.0350 N.am  392  PHE392     -0.1973
     99  CA         0.9830   51.9660  104.5140 C.3   392  PHE392      0.1639
    100  C          0.0620   52.1980  103.3290 C.2   392  PHE392      0.2290
    101  O          0.3700   53.0080  102.4550 O.2   392  PHE392     -0.2864
    102  CB         0.6720   52.9830  105.6190 C.3   392  PHE392      0.0560
    103  CG         1.4030   52.7300  106.9150 C.ar  392  PHE392     -0.0200
    104  CD1        1.3390   53.6600  107.9530 C.ar  392  PHE392     -0.0042
    105  CD2        2.1390   51.5620  107.1080 C.ar  392  PHE392     -0.0042
    106  CE1        1.9940   53.4320  109.1650 C.ar  392  PHE392     -0.0003
    107  CE2        2.8000   51.3220  108.3180 C.ar  392  PHE392     -0.0003
    108  CZ         2.7270   52.2620  109.3500 C.ar  392  PHE392     -0.0000
@<TRIPOS>BOND
     1    91    89   ar
     2    91    93   ar
     3    89    88   ar
     4    93    92   ar
     5    83    84    1
     6    88    90   ar
     7    88    87    1
     8    92    90   ar
     9    84    87    1
    10    84    85    1
    11    16    17    1
    12    24    23    2
    13    23    22    1
    14    94    85   am
    15    94    95    1
    16    85    86    2
    17    19    18    2
    18   101   100    2
    19    97    96    2
    20    18    17    1
    21    18    21   am
    22    17    20    1
    23    95    96    1
    24     1     2    1
    25    21    22    1
    26    96    98   am
    27    22    25    1
    28   100    99    1
    29     2     3    1
    30    78    77    2
    31     4     3    2
    32    98    99    1
    33     3     5   am
    34    25    26    1
    35    27    28    1
    36    77    76    1
    37    99   102    1
    38    34    33   ar
    39     5     6    1
    40     7     6    1
    41     7     8    2
    42    28    31    1
    43    28    29    1
    44    33    35   ar
    45    33    32    1
    46   102   103    1
    47    31    32    1
    48    76    75    1
    49    76    79    1
    50    79    80    1
    51    29    30    2
    52   103   105   ar
    53   103   104   ar
    54   105   107   ar
    55   104   106   ar
    56    80    82    1
    57    80    81    1
    58   107   108   ar
    59    15     9    1
    60    15    14    1
    61   106   108   ar
    62    43    42    1
    63     9    10    1
    64    42    41    1
    65    14    13    1
    66    63    61   ar
    67    63    62   ar
    68    10    13    1
    69    10    11    1
    70    61    59   ar
    71    41    40    1
    72    62    60   ar
    73    11    12    2
    74    73    71   ar
    75    73    74   ar
    76    71    69   ar
    77    74    72   ar
    78    59    58   ar
    79    51    50   ar
    80    69    68    1
    81    69    70   ar
    82    72    70   ar
    83    40    37    1
    84    68    65    1
    85    60    58   ar
    86    58    57    1
    87    50    52   ar
    88    50    49    1
    89    37    38    1
    90    37    36    1
    91    65    64    1
    92    65    66    1
    93    39    38    2
    94    48    49    1
    95    48    45    1
    96    57    54    1
    97    66    67    2
    98    54    53    1
    99    54    55    1
   100    53    46   am
   101    47    46    2
   102    46    45    1
   103    45    44    1
   104    55    56    2
