@<TRIPOS>MOLECULE
tmp/2bujB01.pdb
 90 87 0 0 0
SMALL
GASTEIGER

@<TRIPOS>ATOM
      1  N        -16.0660  -10.0290  -40.2490 N.3    21  GLN21      -0.1245
      2  CA       -15.7910   -8.8390  -41.0620 C.3    21  GLN21       0.1566
      3  C        -16.8750   -8.5710  -42.0930 C.2    21  GLN21       0.2260
      4  O        -17.5840   -9.4960  -42.4470 O.2    21  GLN21      -0.2867
      5  CB       -14.4760   -9.0350  -41.7980 C.3    21  GLN21       0.0367
      6  CG       -14.4930  -10.1700  -42.8100 C.3    21  GLN21       0.0905
      7  CD       -13.1400  -10.3520  -43.4270 C.2    21  GLN21       0.2608
      8  OE1      -12.1850  -10.7110  -42.7480 O.2    21  GLN21      -0.2717
      9  NE2      -13.0390  -10.0830  -44.7100 N.am   21  GLN21      -0.0878
     10  N        -18.4610   -8.4540  -45.6320 N.3    23  LEU23      -0.1245
     11  CA       -18.2060   -9.0870  -46.9320 C.3    23  LEU23       0.1561
     12  C        -18.4920   -8.1900  -48.1350 C.2    23  LEU23       0.2260
     13  O        -17.7260   -8.1490  -49.0860 O.2    23  LEU23      -0.2867
     14  CB       -19.0510  -10.3500  -47.0920 C.3    23  LEU23       0.0270
     15  CG       -18.6230  -11.5710  -46.2890 C.3    23  LEU23       0.0019
     16  CD1      -19.6640  -12.6670  -46.4360 C.3    23  LEU23       0.0001
     17  CD2      -17.2860  -12.0730  -46.7550 C.3    23  LEU23       0.0001
     18  N        -19.7620  -11.4620  -42.6240 N.3    33  LEU33      -0.1245
     19  CA       -19.2540  -12.8100  -42.3800 C.3    33  LEU33       0.1561
     20  C        -19.3830  -13.0600  -40.8970 C.2    33  LEU33       0.2260
     21  O        -18.9640  -12.2310  -40.0810 O.2    33  LEU33      -0.2867
     22  CB       -17.7800  -12.9460  -42.8080 C.3    33  LEU33       0.0270
     23  CG       -17.0950  -14.3360  -42.6520 C.3    33  LEU33       0.0019
     24  CD1      -17.5990  -15.3450  -43.6450 C.3    33  LEU33       0.0001
     25  CD2      -15.5940  -14.2430  -42.7880 C.3    33  LEU33       0.0001
     26  N        -18.8280  -21.0530  -41.1500 N.3    42  PHE42      -0.1241
     27  CA       -18.9890  -19.6690  -41.5550 C.3    42  PHE42       0.1605
     28  C        -20.2970  -19.4760  -42.3120 C.2    42  PHE42       0.2264
     29  O        -20.8220  -20.3960  -42.9440 O.2    42  PHE42      -0.2867
     30  CB       -17.8070  -19.2080  -42.4280 C.3    42  PHE42       0.0534
     31  CG       -16.5010  -19.1190  -41.6780 C.ar   42  PHE42      -0.0203
     32  CD1      -15.5980  -20.1730  -41.6910 C.ar   42  PHE42      -0.0042
     33  CD2      -16.1870  -17.9950  -40.9430 C.ar   42  PHE42      -0.0042
     34  CE1      -14.4110  -20.1020  -40.9750 C.ar   42  PHE42      -0.0003
     35  CE2      -14.9960  -17.9200  -40.2220 C.ar   42  PHE42      -0.0003
     36  CZ       -14.1160  -18.9730  -40.2410 C.ar   42  PHE42      -0.0000
     37  N        -21.9120  -19.9640  -46.5980 N.3    93  PHE93      -0.1227
     38  CA       -20.7190  -19.3170  -47.0700 C.3    93  PHE93       0.1736
     39  C        -19.9590  -20.2360  -48.0400 C.2    93  PHE93       0.2595
     40  O        -19.8420  -21.4190  -47.8150 O.2    93  PHE93      -0.2718
     41  CB       -19.8270  -19.0040  -45.8850 C.3    93  PHE93       0.0547
     42  CG       -18.5040  -18.4560  -46.2860 C.ar   93  PHE93      -0.0202
     43  CD1      -18.3790  -17.1340  -46.6420 C.ar   93  PHE93      -0.0042
     44  CD2      -17.3850  -19.2750  -46.3530 C.ar   93  PHE93      -0.0042
     45  CE1      -17.1450  -16.6210  -47.0490 C.ar   93  PHE93      -0.0003
     46  CE2      -16.1420  -18.7580  -46.7390 C.ar   93  PHE93      -0.0003
     47  CZ       -16.0310  -17.4360  -47.0910 C.ar   93  PHE93      -0.0000
     48  N        -19.3820  -19.6480  -49.0790 N.am   94  PHE94      -0.1962
     49  CA       -18.7170  -20.3740  -50.1270 C.3    94  PHE94       0.1771
     50  C        -17.2420  -19.9550  -50.2770 C.2    94  PHE94       0.2619
     51  O        -16.9380  -18.9510  -50.9040 O.2    94  PHE94      -0.2715
     52  CB       -19.4880  -20.1350  -51.4180 C.3    94  PHE94       0.0574
     53  CG       -20.8780  -20.7230  -51.4080 C.ar   94  PHE94      -0.0200
     54  CD1      -21.9400  -20.0240  -50.8590 C.ar   94  PHE94      -0.0042
     55  CD2      -21.1190  -21.9810  -51.9590 C.ar   94  PHE94      -0.0042
     56  CE1      -23.2230  -20.5590  -50.8440 C.ar   94  PHE94      -0.0003
     57  CE2      -22.3950  -22.5290  -51.9530 C.ar   94  PHE94      -0.0003
     58  CZ       -23.4530  -21.8120  -51.3810 C.ar   94  PHE94      -0.0000
     59  N        -16.3410  -20.7400  -49.6810 N.am   95  LYS95      -0.1963
     60  CA       -14.8990  -20.6070  -49.8780 C.3    95  LYS95       0.1728
     61  C        -14.5000  -20.4290  -51.3290 C.2    95  LYS95       0.2616
     62  O        -13.5120  -19.7640  -51.5940 O.2    95  LYS95      -0.2715
     63  CB       -14.1570  -21.8850  -49.5010 C.3    95  LYS95       0.0311
     64  CG       -14.3590  -22.4360  -48.1410 C.3    95  LYS95       0.0038
     65  CD       -13.5510  -23.7630  -47.9920 C.3    95  LYS95       0.0206
     66  CE       -13.6280  -24.6630  -49.2520 C.3    95  LYS95       0.1093
     67  NZ       -13.2570  -26.0760  -48.9230 N.3    95  LYS95      -0.1314
     68  N        -15.1640  -21.1310  -52.2430 N.am   96  ARG96      -0.1963
     69  CA       -14.7280  -21.1620  -53.6480 C.3    96  ARG96       0.1729
     70  C        -15.2580  -19.9830  -54.4460 C.2    96  ARG96       0.2616
     71  O        -14.8300  -19.7640  -55.5740 O.2    96  ARG96      -0.2715
     72  CB       -15.1330  -22.4720  -54.3360 C.3    96  ARG96       0.0348
     73  CG       -14.6100  -23.7670  -53.6510 C.3    96  ARG96       0.0492
     74  CD       -14.7310  -24.9580  -54.5820 C.3    96  ARG96       0.2205
     75  NE       -14.0040  -24.6490  -55.8080 N.pl3  96  ARG96      -0.0865
     76  CZ       -14.0240  -25.3520  -56.9370 C.cat  96  ARG96       0.5346
     77  NH1      -14.7320  -26.4680  -57.0460 N.pl3  96  ARG96       0.1354
     78  NH2      -13.3020  -24.9280  -57.9700 N.pl3  96  ARG96       0.1354
     79  N        -16.1790  -19.2160  -53.8650 N.am   97  GLY97      -0.1955
     80  CA       -16.6700  -17.9980  -54.4880 C.3    97  GLY97       0.1869
     81  C        -17.6820  -18.2720  -55.5810 C.2    97  GLY97       0.2309
     82  O        -18.4390  -19.2280  -55.4850 O.2    97  GLY97      -0.2863
     83  N        -15.3900  -15.6240  -60.4770 N.3   101  ASN101     -0.1240
     84  CA       -14.0110  -15.5860  -60.0240 C.3   101  ASN101      0.1653
     85  C        -13.2290  -16.8850  -60.2660 C.2   101  ASN101      0.2266
     86  O        -12.0030  -16.8510  -60.2540 O.2   101  ASN101     -0.2867
     87  CB       -13.8220  -14.9430  -58.6280 C.3   101  ASN101      0.1155
     88  CG       -14.6760  -15.5470  -57.6010 C.2   101  ASN101      0.2627
     89  OD1      -14.7520  -16.7650  -57.5310 O.2   101  ASN101     -0.2716
     90  ND2      -15.3340  -14.7200  -56.7740 N.am  101  ASN101     -0.0877
@<TRIPOS>BOND
     1    83    84    1
     2    85    86    2
     3    85    84    1
     4    84    87    1
     5    87    88    1
     6    78    76    1
     7    88    89    2
     8    88    90   am
     9    77    76    1
    10    76    75    2
    11    75    74    1
    12    81    82    2
    13    81    80    1
    14    71    70    2
    15    74    73    1
    16    80    79    1
    17    70    79   am
    18    70    69    1
    19    72    73    1
    20    72    69    1
    21    69    68    1
    22    68    61   am
    23    55    57   ar
    24    55    53   ar
    25    57    58   ar
    26    62    61    2
    27    52    53    1
    28    52    49    1
    29    53    54   ar
    30    58    56   ar
    31    61    60    1
    32    51    50    2
    33    54    56   ar
    34    50    49    1
    35    50    59   am
    36    49    48    1
    37    60    59    1
    38    60    63    1
    39    63    64    1
    40    66    67    1
    41    66    65    1
    42    13    12    2
    43    48    39   am
    44    64    65    1
    45    12    11    1
    46    39    40    2
    47    39    38    1
    48    14    11    1
    49    14    15    1
    50    47    45   ar
    51    47    46   ar
    52    38    37    1
    53    38    41    1
    54    45    43   ar
    55    11    10    1
    56    17    15    1
    57    46    44   ar
    58    43    42   ar
    59    16    15    1
    60    44    42   ar
    61    42    41    1
    62     9     7   am
    63    24    23    1
    64     7     6    1
    65     7     8    2
    66    29    28    2
    67     6     5    1
    68    22    23    1
    69    22    19    1
    70    25    23    1
    71    18    19    1
    72     4     3    2
    73    30    31    1
    74    30    27    1
    75    19    20    1
    76    28    27    1
    77     3     2    1
    78     5     2    1
    79    32    31   ar
    80    32    34   ar
    81    31    33   ar
    82    27    26    1
    83     2     1    1
    84    34    36   ar
    85    33    35   ar
    86    20    21    2
    87    36    35   ar
