@<TRIPOS>MOLECULE
tmp/2bujA00.pdb
 163 154 0 0 0
SMALL
GASTEIGER

@<TRIPOS>ATOM
      1  N        -17.0680  -16.0160  -10.1720 N.3    22  LEU22      -0.1231
      2  CA       -17.6820  -16.9080   -9.2010 C.3    22  LEU22       0.1693
      3  C        -16.9730  -16.8380   -7.8810 C.2    22  LEU22       0.2593
      4  O        -17.5880  -17.0800   -6.8620 O.2    22  LEU22      -0.2718
      5  CB       -17.6380  -18.3660   -9.6700 C.3    22  LEU22       0.0284
      6  CG       -18.7850  -18.8780  -10.5290 C.3    22  LEU22       0.0019
      7  CD1      -18.5780  -20.3630  -10.8900 C.3    22  LEU22       0.0001
      8  CD2      -20.0970  -18.6740   -9.8000 C.3    22  LEU22       0.0001
      9  N        -15.6640  -16.5860   -7.9000 N.am   23  GLY23      -0.1942
     10  CA       -14.9040  -16.4320   -6.6660 C.3    23  GLY23       0.2014
     11  C        -13.4170  -16.7230   -6.7440 C.2    23  GLY23       0.2638
     12  O        -12.8060  -16.5830   -7.8040 O.2    23  GLY23      -0.2714
     13  N        -12.8570  -17.0810   -5.5760 N.am   24  GLU24      -0.1977
     14  CA       -11.4460  -17.5030   -5.3740 C.3    24  GLU24       0.1602
     15  C        -11.2210  -18.0030   -3.9340 C.2    24  GLU24       0.2287
     16  O        -10.0790  -18.1530   -3.4820 O.2    24  GLU24      -0.2864
     17  CB       -10.4770  -16.3600   -5.6760 C.3    24  GLU24       0.0415
     18  CG       -10.8260  -15.0400   -5.0120 C.3    24  GLU24       0.1163
     19  CD       -10.8440  -13.9020   -6.0030 C.2    24  GLU24       0.3649
     20  OE1      -10.2560  -12.8430   -5.7270 O.co2  24  GLU24      -0.2457
     21  OE2      -11.4430  -14.0690   -7.0820 O.co2  24  GLU24      -0.2457
     22  N        -12.0200  -18.2040  -10.2640 N.3    28  VAL28      -0.1245
     23  CA       -12.9890  -19.0940  -10.8580 C.3    28  VAL28       0.1561
     24  C        -14.0350  -18.2450  -11.5350 C.2    28  VAL28       0.2260
     25  O        -14.5680  -17.3400  -10.9180 O.2    28  VAL28      -0.2867
     26  CB       -13.6500  -19.9690   -9.8040 C.3    28  VAL28       0.0252
     27  CG1      -14.6210  -20.9390  -10.4690 C.3    28  VAL28       0.0019
     28  CG2      -12.5840  -20.7320   -9.0160 C.3    28  VAL28       0.0019
     29  N        -17.7190  -23.7320  -14.6140 N.3    41  ALA41      -0.1245
     30  CA       -16.8890  -22.9890  -13.7150 C.3    41  ALA41       0.1562
     31  C        -15.4720  -23.1800  -14.2230 C.2    41  ALA41       0.2260
     32  O        -14.9720  -24.3050  -14.2860 O.2    41  ALA41      -0.2867
     33  CB       -17.0350  -23.5190  -12.2980 C.3    41  ALA41       0.0290
     34  N        -11.7230  -22.5760  -13.6990 N.3    43  LYS43      -0.1245
     35  CA       -10.7590  -22.2620  -12.6440 C.3    43  LYS43       0.1561
     36  C         -9.4460  -21.9380  -13.2960 C.2    43  LYS43       0.2260
     37  O         -8.9340  -22.7300  -14.0770 O.2    43  LYS43      -0.2867
     38  CB       -10.5830  -23.4280  -11.6940 C.3    43  LYS43       0.0271
     39  CG        -9.6960  -23.1160  -10.5030 C.3    43  LYS43       0.0035
     40  CD        -9.2120  -24.3840   -9.8620 C.3    43  LYS43       0.0206
     41  CE        -8.3620  -24.1180   -8.6420 C.3    43  LYS43       0.1093
     42  NZ        -8.2680  -25.4000   -7.8610 N.3    43  LYS43      -0.1314
     43  N         -3.3470  -31.8110  -10.0550 N.3    59  GLU59      -0.1245
     44  CA        -4.7620  -31.6740   -9.7420 C.3    59  GLU59       0.1567
     45  C         -5.6330  -32.1670  -10.8880 C.2    59  GLU59       0.2260
     46  O         -6.5000  -32.9960  -10.6720 O.2    59  GLU59      -0.2867
     47  CB        -5.0880  -30.2190   -9.4300 C.3    59  GLU59       0.0388
     48  CG        -6.5360  -29.9700   -9.0300 C.3    59  GLU59       0.1160
     49  CD        -6.7380  -28.6080   -8.3590 C.2    59  GLU59       0.3649
     50  OE1       -5.7700  -27.7880   -8.3390 O.co2  59  GLU59      -0.2457
     51  OE2       -7.8730  -28.3630   -7.8590 O.co2  59  GLU59      -0.2457
     52  N        -16.3650  -34.5850   -8.4590 N.3    72  LEU72      -0.1245
     53  CA       -16.3820  -33.5990   -9.5240 C.3    72  LEU72       0.1561
     54  C        -15.5690  -34.0360  -10.7160 C.2    72  LEU72       0.2260
     55  O        -14.3730  -34.3440  -10.5860 O.2    72  LEU72      -0.2867
     56  CB       -15.7820  -32.2930   -9.0000 C.3    72  LEU72       0.0270
     57  CG       -15.9170  -31.0260   -9.8590 C.3    72  LEU72       0.0019
     58  CD1      -17.3640  -30.8190  -10.2450 C.3    72  LEU72       0.0001
     59  CD2      -15.3940  -29.8110   -9.0900 C.3    72  LEU72       0.0001
     60  N        -14.7190  -26.9790  -15.3930 N.3    92  LEU92      -0.1231
     61  CA       -15.5100  -27.8890  -14.5910 C.3    92  LEU92       0.1678
     62  C        -17.0370  -27.6350  -14.7260 C.2    92  LEU92       0.2434
     63  O        -17.4490  -26.5180  -15.0420 O.2    92  LEU92      -0.2733
     64  CB       -15.0950  -27.7190  -13.1240 C.3    92  LEU92       0.0284
     65  CG       -13.6170  -27.7700  -12.7020 C.3    92  LEU92       0.0019
     66  CD1      -13.3940  -26.9780  -11.4020 C.3    92  LEU92       0.0001
     67  CD2      -13.1450  -29.1970  -12.5260 C.3    92  LEU92       0.0001
     68  N        -17.8750  -28.6370  -14.3850 N.am   93  PRO93      -0.2718
     69  CA       -19.3230  -28.4420  -14.3290 C.3    93  PRO93       0.1535
     70  C        -19.7390  -27.3740  -13.3170 C.2    93  PRO93       0.2599
     71  O        -19.0530  -27.1900  -12.3310 O.2    93  PRO93      -0.2715
     72  CB       -19.8350  -29.8010  -13.8500 C.3    93  PRO93       0.0310
     73  CG       -18.7550  -30.7680  -14.2170 C.3    93  PRO93       0.0237
     74  CD       -17.5100  -30.0030  -13.9700 C.3    93  PRO93       0.0939
     75  N        -20.8620  -26.6970  -13.5660 N.am   94  PHE94      -0.1960
     76  CA       -21.3760  -25.6640  -12.6790 C.3    94  PHE94       0.1771
     77  C        -22.5960  -26.1630  -11.8960 C.2    94  PHE94       0.2620
     78  O        -23.5910  -26.6490  -12.4650 O.2    94  PHE94      -0.2715
     79  CB       -21.7520  -24.4530  -13.4980 C.3    94  PHE94       0.0574
     80  CG       -22.4410  -23.3900  -12.7140 C.ar   94  PHE94      -0.0200
     81  CD1      -21.7800  -22.7440  -11.6710 C.ar   94  PHE94      -0.0042
     82  CD2      -23.7430  -23.0170  -13.0220 C.ar   94  PHE94      -0.0042
     83  CE1      -22.4030  -21.7530  -10.9400 C.ar   94  PHE94      -0.0003
     84  CE2      -24.3720  -22.0350  -12.3060 C.ar   94  PHE94      -0.0003
     85  CZ       -23.7010  -21.4020  -11.2550 C.ar   94  PHE94      -0.0000
     86  N        -22.5090  -26.0340  -10.5790 N.am   95  PHE95      -0.1960
     87  CA       -23.5810  -26.4130   -9.6910 C.3    95  PHE95       0.1771
     88  C        -24.2280  -25.1710   -9.1100 C.2    95  PHE95       0.2619
     89  O        -23.7010  -24.5360   -8.1930 O.2    95  PHE95      -0.2715
     90  CB       -23.0360  -27.3680   -8.6330 C.3    95  PHE95       0.0574
     91  CG       -22.5410  -28.6650   -9.2230 C.ar   95  PHE95      -0.0200
     92  CD1      -21.2330  -29.0350   -9.1100 C.ar   95  PHE95      -0.0042
     93  CD2      -23.3930  -29.4720   -9.9700 C.ar   95  PHE95      -0.0042
     94  CE1      -20.7820  -30.2010   -9.6790 C.ar   95  PHE95      -0.0003
     95  CE2      -22.9460  -30.6520  -10.5510 C.ar   95  PHE95      -0.0003
     96  CZ       -21.6370  -31.0150  -10.3980 C.ar   95  PHE95      -0.0000
     97  N        -25.3740  -24.8180   -9.6850 N.am   96  LYS96      -0.1977
     98  CA       -26.0850  -23.5960   -9.3320 C.3    96  LYS96       0.1596
     99  C        -26.4710  -23.5260   -7.8510 C.2    96  LYS96       0.2287
    100  O        -26.6650  -22.4310   -7.3230 O.2    96  LYS96      -0.2864
    101  CB       -27.3350  -23.4180  -10.2140 C.3    96  LYS96       0.0298
    102  CG       -28.4590  -24.3940   -9.9220 C.3    96  LYS96       0.0038
    103  CD       -29.6460  -24.1580  -10.8550 C.3    96  LYS96       0.0206
    104  CE       -30.9560  -24.5870  -10.2140 C.3    96  LYS96       0.1093
    105  NZ       -31.0800  -26.0630  -10.2010 N.3    96  LYS96      -0.1314
    106  N        -24.5680  -24.3570   -5.3560 N.3    98  GLY98      -0.1210
    107  CA       -23.4070  -24.0380   -4.5730 C.3    98  GLY98       0.1956
    108  C        -23.1250  -25.1600   -3.6120 C.2    98  GLY98       0.2612
    109  O        -23.3360  -26.3290   -3.9210 O.2    98  GLY98      -0.2717
    110  N        -22.6770  -24.7920   -2.4260 N.am   99  THR99      -0.1952
    111  CA       -21.9720  -25.7140   -1.5780 C.3    99  THR99       0.1897
    112  C        -22.8990  -26.2520   -0.4680 C.2    99  THR99       0.2313
    113  O        -23.9940  -25.7470   -0.2690 O.2    99  THR99      -0.2863
    114  CB       -20.6490  -25.0380   -1.0940 C.3    99  THR99       0.1794
    115  OG1      -19.7130  -26.0450   -0.7210 O.3    99  THR99      -0.2208
    116  CG2      -20.8660  -24.1080    0.0780 C.3    99  THR99       0.0378
    117  N        -23.3150  -23.5000    2.3730 N.3   102  ASN102     -0.1240
    118  CA       -24.2360  -22.3770    2.2730 C.3   102  ASN102      0.1653
    119  C        -25.7080  -22.8330    2.3070 C.2   102  ASN102      0.2266
    120  O        -26.6030  -22.0650    2.7010 O.2   102  ASN102     -0.2867
    121  CB       -23.8630  -21.3770    1.1460 C.3   102  ASN102      0.1155
    122  CG       -23.7610  -22.0210   -0.1930 C.2   102  ASN102      0.2627
    123  OD1      -24.5830  -22.8700   -0.5240 O.2   102  ASN102     -0.2716
    124  ND2      -22.7490  -21.6350   -0.9860 N.am  102  ASN102     -0.0877
    125  N        -17.4090  -26.7760    2.7390 N.3   146  THR146     -0.1203
    126  CA       -17.1980  -25.8510    1.6310 C.3   146  THR146      0.1994
    127  C        -16.5120  -26.4630    0.4080 C.2   146  THR146      0.2617
    128  O        -16.3310  -25.7740   -0.5840 O.2   146  THR146     -0.2717
    129  CB       -16.4210  -24.6060    2.0820 C.3   146  THR146      0.1784
    130  OG1      -15.2310  -25.0040    2.7850 O.3   146  THR146     -0.2211
    131  CG2      -17.3300  -23.7070    2.9720 C.3   146  THR146      0.0376
    132  N        -16.1110  -27.7300    0.5140 N.am  147  ASN147     -0.1974
    133  CA       -15.5630  -28.5610   -0.5770 C.3   147  ASN147      0.1688
    134  C        -16.5790  -29.6010   -1.0810 C.2   147  ASN147      0.2292
    135  O        -16.1980  -30.6120   -1.6650 O.2   147  ASN147     -0.2864
    136  CB       -14.3010  -29.3070   -0.0860 C.3   147  ASN147      0.1181
    137  CG       -13.0450  -28.4490   -0.1590 C.2   147  ASN147      0.2629
    138  OD1      -13.0250  -27.4230   -0.8290 O.2   147  ASN147     -0.2716
    139  ND2      -11.9880  -28.8770    0.5180 N.am  147  ASN147     -0.0877
    140  N        -20.1610  -29.6910   -3.2020 N.3   149  LEU149     -0.1245
    141  CA       -21.1820  -29.0730   -4.0150 C.3   149  LEU149      0.1561
    142  C        -22.4570  -29.9230   -4.0020 C.2   149  LEU149      0.2260
    143  O        -22.4160  -31.1420   -3.7830 O.2   149  LEU149     -0.2867
    144  CB       -20.6660  -28.8790   -5.4510 C.3   149  LEU149      0.0270
    145  CG       -19.3840  -28.0450   -5.5870 C.3   149  LEU149      0.0019
    146  CD1      -18.5980  -28.4310   -6.8240 C.3   149  LEU149      0.0001
    147  CD2      -19.6830  -26.5300   -5.5780 C.3   149  LEU149      0.0001
    148  N        -15.1020  -31.9090   -4.3310 N.3   159  MET159     -0.1230
    149  CA       -14.2770  -31.1040   -5.1990 C.3   159  MET159      0.1702
    150  C        -12.9940  -30.8080   -4.4540 C.2   159  MET159      0.2592
    151  O        -12.8130  -31.2960   -3.3500 O.2   159  MET159     -0.2718
    152  CB       -15.0160  -29.8190   -5.6030 C.3   159  MET159      0.0401
    153  CG       -15.4520  -28.9140   -4.4470 C.3   159  MET159      0.0596
    154  SD       -15.7340  -27.1710   -4.9470 S.3   159  MET159     -0.1393
    155  CE       -14.1510  -26.4530   -4.5190 C.3   159  MET159      0.0692
    156  N        -12.1010  -30.0430   -5.0760 N.am  160  ASP160     -0.1974
    157  CA       -10.8290  -29.6290   -4.4800 C.3   160  ASP160      0.1709
    158  C         -9.8900  -30.7840   -4.1350 C.2   160  ASP160      0.2293
    159  O         -9.7320  -31.1690   -2.9650 O.2   160  ASP160     -0.2864
    160  CB       -11.0680  -28.7680   -3.2470 C.3   160  ASP160      0.1436
    161  CG        -9.8370  -27.9880   -2.8480 C.2   160  ASP160      0.3671
    162  OD1       -9.3420  -27.2110   -3.7000 O.co2 160  ASP160     -0.2456
    163  OD2       -9.3640  -28.1660   -1.6980 O.co2 160  ASP160     -0.2456
@<TRIPOS>BOND
     1    60    61    1
     2    63    62    2
     3    62    61    1
     4    62    68   am
     5    29    30    1
     6    61    64    1
     7    68    69    1
     8    68    74    1
     9    69    72    1
    10    69    70    1
    11    32    31    2
    12    31    30    1
    13    73    74    1
    14    73    72    1
    15    37    36    2
    16    30    33    1
    17    34    35    1
    18    75    70   am
    19    75    76    1
    20    79    80    1
    21    79    76    1
    22    70    71    2
    23    36    35    1
    24    64    65    1
    25    82    80   ar
    26    82    84   ar
    27    80    81   ar
    28    65    67    1
    29    65    66    1
    30    76    77    1
    31    35    38    1
    32    78    77    2
    33    84    85   ar
    34    77    86   am
    35    38    39    1
    36    81    83   ar
    37    24    25    2
    38    24    23    1
    39    85    83   ar
    40     7     6    1
    41    45    46    2
    42    45    44    1
    43    23    22    1
    44    23    26    1
    45   103   104    1
    46   103   102    1
    47    54    55    2
    48    54    53    1
    49    86    87    1
    50    95    96   ar
    51    95    93   ar
    52     6     8    1
    53     6     5    1
    54    39    40    1
    55    27    26    1
    56    96    94   ar
    57    58    57    1
    58   101   102    1
    59   101    98    1
    60   104   105    1
    61     1     2    1
    62    43    44    1
    63    93    91   ar
    64    40    41    1
    65    57    59    1
    66    57    56    1
    67    26    28    1
    68    44    47    1
    69    87    88    1
    70    87    90    1
    71    97    98    1
    72    97    88   am
    73    94    92   ar
    74     5     2    1
    75    53    56    1
    76    53    52    1
    77    47    48    1
    78    98    99    1
    79    91    92   ar
    80    91    90    1
    81     2     3    1
    82    88    89    2
    83    48    49    1
    84    41    42    1
    85    49    50   ar
    86    49    51   ar
    87     9     3   am
    88     9    10    1
    89     3     4    2
    90    99   100    2
    91    12    11    2
    92    21    19   ar
    93   146   145    1
    94    11    10    1
    95    11    13   am
    96    19    20   ar
    97    19    18    1
    98    17    14    1
    99    17    18    1
   100   152   149    1
   101   152   153    1
   102   145   147    1
   103   145   144    1
   104    13    14    1
   105   144   141    1
   106    14    15    1
   107   106   107    1
   108   149   150    1
   109   149   148    1
   110   156   157    1
   111   156   150   am
   112   154   155    1
   113   154   153    1
   114   107   108    1
   115   157   158    1
   116   157   160    1
   117   150   151    2
   118   158   159    2
   119   141   142    1
   120   141   140    1
   121   142   143    2
   122    15    16    2
   123   109   108    2
   124   162   161   ar
   125   108   110   am
   126   160   161    1
   127   161   163   ar
   128   110   111    1
   129   135   134    2
   130   111   114    1
   131   111   112    1
   132   114   115    1
   133   114   116    1
   134   134   133    1
   135   124   122   am
   136   138   137    2
   137   128   127    2
   138   133   136    1
   139   133   132    1
   140   123   122    2
   141   112   113    2
   142   122   121    1
   143   137   136    1
   144   137   139   am
   145   127   132   am
   146   127   126    1
   147   121   118    1
   148   126   129    1
   149   126   125    1
   150   129   130    1
   151   129   131    1
   152   118   119    1
   153   118   117    1
   154   119   120    2
