@<TRIPOS>MOLECULE
tmp/2bunA00.pdb
 187 178 0 0 0
SMALL
GASTEIGER

@<TRIPOS>ATOM
      1  N          6.1500    0.1050   -4.0640 N.3    17  TYR17      -0.1241
      2  CA         6.7940   -0.9840   -3.3910 C.3    17  TYR17       0.1605
      3  C          6.1930   -2.3240   -3.7170 C.2    17  TYR17       0.2264
      4  O          5.0180   -2.4280   -4.1080 O.2    17  TYR17      -0.2867
      5  CB         6.8350   -0.7630   -1.8750 C.3    17  TYR17       0.0534
      6  CG         5.6270   -1.0100   -1.0030 C.ar   17  TYR17      -0.0201
      7  CD1        5.1080   -2.2860   -0.7730 C.ar   17  TYR17      -0.0009
      8  CD2        5.0760    0.0430   -0.3150 C.ar   17  TYR17      -0.0009
      9  CE1        4.0690   -2.4750    0.1040 C.ar   17  TYR17       0.0417
     10  CE2        4.0480   -0.1380    0.5450 C.ar   17  TYR17       0.0417
     11  CZ         3.5480   -1.4000    0.7540 C.ar   17  TYR17       0.1957
     12  OH         2.5490   -1.5930    1.6320 O.3    17  TYR17      -0.2866
     13  N         -0.4330  -11.5540    9.0660 N.3    25  LEU25      -0.1245
     14  CA        -1.4830  -10.6210    8.7730 C.3    25  LEU25       0.1561
     15  C         -2.8340  -11.2060    8.9430 C.2    25  LEU25       0.2260
     16  O         -3.0800  -12.3720    8.6130 O.2    25  LEU25      -0.2867
     17  CB        -1.3810  -10.1260    7.3490 C.3    25  LEU25       0.0270
     18  CG        -0.3360   -9.0940    7.0730 C.3    25  LEU25       0.0019
     19  CD1       -0.2320   -8.8640    5.5770 C.3    25  LEU25       0.0001
     20  CD2       -0.6970   -7.8030    7.7780 C.3    25  LEU25       0.0001
     21  N         -5.5690   -5.7070    7.8360 N.3    30  LEU30      -0.1245
     22  CA        -5.6950   -4.9490    6.5410 C.3    30  LEU30       0.1561
     23  C         -6.7550   -3.8980    6.6440 C.2    30  LEU30       0.2260
     24  O         -6.5880   -2.7800    6.1790 O.2    30  LEU30      -0.2867
     25  CB        -6.0400   -5.8170    5.3050 C.3    30  LEU30       0.0270
     26  CG        -4.9860   -6.7650    4.7490 C.3    30  LEU30       0.0019
     27  CD1       -3.6800   -6.0550    4.4600 C.3    30  LEU30       0.0001
     28  CD2       -4.7920   -7.9070    5.6590 C.3    30  LEU30       0.0001
     29  N         -7.8600   -2.4360    9.1950 N.3    32  ASP32      -0.1225
     30  CA        -7.3850   -1.3400   10.0240 C.3    32  ASP32       0.1805
     31  C         -6.3910   -0.4780    9.2380 C.2    32  ASP32       0.2597
     32  O         -6.5090    0.7700    9.2320 O.2    32  ASP32      -0.2718
     33  CB        -6.7850   -1.8590   11.3180 C.3    32  ASP32       0.1424
     34  CG        -6.0860   -0.8050   12.1290 C.2    32  ASP32       0.3668
     35  OD1       -6.7570    0.1250   12.6580 O.co2  32  ASP32      -0.2456
     36  OD2       -4.8660   -0.8850   12.2660 O.co2  32  ASP32      -0.2456
     37  N         -5.4570   -1.1460    8.5420 N.am   33  ILE33      -0.1980
     38  CA        -4.4640   -0.4990    7.6620 C.3    33  ILE33       0.1595
     39  C         -5.1540    0.4430    6.6730 C.2    33  ILE33       0.2287
     40  O         -4.8240    1.6220    6.6160 O.2    33  ILE33      -0.2864
     41  CB        -3.6290   -1.5610    6.8490 C.3    33  ILE33       0.0276
     42  CG1       -2.6030   -2.2850    7.7260 C.3    33  ILE33       0.0022
     43  CG2       -2.9210   -0.9290    5.6390 C.3    33  ILE33       0.0022
     44  CD1       -2.2130   -3.6580    7.1910 C.3    33  ILE33       0.0001
     45  N         -6.7630    3.6030    8.3420 N.3    36  THR36      -0.1203
     46  CA        -5.8190    4.5730    8.8630 C.3    36  THR36       0.1994
     47  C         -4.9480    5.2020    7.7320 C.2    36  THR36       0.2618
     48  O         -4.6200    6.3950    7.7790 O.2    36  THR36      -0.2717
     49  CB        -4.9430    3.9840   10.0260 C.3    36  THR36       0.1784
     50  OG1       -4.1390    5.0070   10.6390 O.3    36  THR36      -0.2211
     51  CG2       -4.0340    2.8790    9.5390 C.3    36  THR36       0.0376
     52  N         -4.6390    4.4270    6.6930 N.am   37  SER37      -0.1951
     53  CA        -3.7980    4.9140    5.6140 C.3    37  SER37       0.1924
     54  C         -4.4960    5.9740    4.7690 C.2    37  SER37       0.2314
     55  O         -3.8860    6.9600    4.4130 O.2    37  SER37      -0.2863
     56  CB        -3.2670    3.7640    4.7670 C.3    37  SER37       0.2116
     57  OG        -4.3020    2.9170    4.3550 O.3    37  SER37      -0.2180
     58  N         -4.4800    9.1730    6.6800 N.3    40  HIS40      -0.1226
     59  CA        -3.1600    9.7650    6.6670 C.3    40  HIS40       0.1752
     60  C         -2.8530   10.3100    5.2700 C.2    40  HIS40       0.2596
     61  O         -2.3580   11.4040    5.1460 O.2    40  HIS40      -0.2718
     62  CB        -2.1170    8.7220    7.0790 C.3    40  HIS40       0.0759
     63  CG        -0.7220    9.2380    7.3680 C.ar   40  HIS40       0.0818
     64  ND1        0.2600    8.4470    7.9050 N.ar   40  HIS40      -0.2268
     65  CD2       -0.1390   10.4430    7.1600 C.ar   40  HIS40       0.1154
     66  CE1        1.3630    9.1210    8.0040 C.ar   40  HIS40       0.1986
     67  NE2        1.1550   10.3300    7.5650 N.ar   40  HIS40      -0.2212
     68  N         -3.1650    9.5440    4.2400 N.am   41  ASN41      -0.1974
     69  CA        -2.9280    9.9570    2.8470 C.3    41  ASN41       0.1688
     70  C         -3.7030   11.1830    2.4710 C.2    41  ASN41       0.2292
     71  O         -3.1630   12.0750    1.8310 O.2    41  ASN41      -0.2864
     72  CB        -3.1810    8.8300    1.8340 C.3    41  ASN41       0.1181
     73  CG        -2.0020    7.8910    1.6990 C.2    41  ASN41       0.2629
     74  OD1       -1.2410    7.7090    2.6230 O.2    41  ASN41      -0.2716
     75  ND2       -1.8280    7.3170    0.5450 N.am   41  ASN41      -0.0877
     76  N         -3.6630    0.0340   -4.4520 N.3    50  LEU50      -0.1245
     77  CA        -3.0470   -1.1750   -4.0010 C.3    50  LEU50       0.1561
     78  C         -3.5100   -2.3510   -4.8210 C.2    50  LEU50       0.2260
     79  O         -4.6980   -2.4950   -5.1080 O.2    50  LEU50      -0.2867
     80  CB        -3.3540   -1.3430   -2.4900 C.3    50  LEU50       0.0270
     81  CG        -3.0660   -2.6900   -1.8010 C.3    50  LEU50       0.0019
     82  CD1       -2.8940   -2.4670   -0.3310 C.3    50  LEU50       0.0001
     83  CD2       -4.2380   -3.6430   -1.9950 C.3    50  LEU50       0.0001
     84  N          1.7710   -8.1300   -2.5690 N.3    57  PHE57      -0.1241
     85  CA         1.3930   -6.7430   -2.5090 C.3    57  PHE57       0.1605
     86  C          2.1200   -5.9130   -3.5190 C.2    57  PHE57       0.2264
     87  O          3.3630   -5.9350   -3.5680 O.2    57  PHE57      -0.2867
     88  CB         1.8220   -6.1400   -1.1830 C.3    57  PHE57       0.0534
     89  CG         0.8930   -6.1660   -0.0380 C.ar   57  PHE57      -0.0203
     90  CD1       -0.3400   -5.5470   -0.1080 C.ar   57  PHE57      -0.0042
     91  CD2        1.2880   -6.7390    1.1450 C.ar   57  PHE57      -0.0042
     92  CE1       -1.1590   -5.5220    0.9940 C.ar   57  PHE57      -0.0003
     93  CE2        0.4790   -6.6980    2.2470 C.ar   57  PHE57      -0.0003
     94  CZ        -0.7400   -6.0950    2.1670 C.ar   57  PHE57      -0.0000
     95  N          1.9090   -1.9920   -3.8660 N.3    59  GLN59      -0.1245
     96  CA         1.2650   -0.8480   -3.2820 C.3    59  GLN59       0.1566
     97  C          2.1600    0.3180   -3.5030 C.2    59  GLN59       0.2260
     98  O          3.3820    0.2010   -3.3020 O.2    59  GLN59      -0.2867
     99  CB         1.0710   -1.1280   -1.7720 C.3    59  GLN59       0.0367
    100  CG         0.1190   -0.2060   -0.9830 C.3    59  GLN59       0.0905
    101  CD         0.5640    1.2440   -0.7860 C.2    59  GLN59       0.2608
    102  OE1       -0.2410    2.1120   -0.6790 O.2    59  GLN59      -0.2717
    103  NE2        1.8320    1.5060   -0.7310 N.am   59  GLN59      -0.0878
    104  N          2.4490    4.8640   -3.4240 N.3    61  LEU61      -0.1245
    105  CA         1.9390    6.1030   -2.9070 C.3    61  LEU61       0.1561
    106  C          2.5670    7.2950   -3.6150 C.2    61  LEU61       0.2260
    107  O          3.7820    7.3250   -3.8380 O.2    61  LEU61      -0.2867
    108  CB         2.1500    6.1970   -1.3760 C.3    61  LEU61       0.0270
    109  CG         3.5670    5.9100   -0.8450 C.3    61  LEU61       0.0019
    110  CD1        3.7090    6.4420    0.5500 C.3    61  LEU61       0.0001
    111  CD2        3.8840    4.4150   -0.8080 C.3    61  LEU61       0.0001
    112  N          5.3830    8.9460    5.8140 N.3    71  VAL71      -0.1245
    113  CA         4.6310    7.7620    5.6310 C.3    71  VAL71       0.1561
    114  C          5.5520    6.5180    5.6220 C.2    71  VAL71       0.2260
    115  O          5.3140    5.6060    6.3870 O.2    71  VAL71      -0.2867
    116  CB         3.7540    7.8630    4.3630 C.3    71  VAL71       0.0252
    117  CG1        3.2100    6.5350    3.9510 C.3    71  VAL71       0.0019
    118  CG2        2.6070    8.8210    4.6160 C.3    71  VAL71       0.0019
    119  N          6.7870    5.6320    8.9420 N.3    74  HIS74      -0.1226
    120  CA         5.6830    5.0760    9.7260 C.3    74  HIS74       0.1752
    121  C          5.3270    3.6500    9.2730 C.2    74  HIS74       0.2595
    122  O          4.9210    2.8190   10.0880 O.2    74  HIS74      -0.2718
    123  CB         4.4320    5.9770    9.7250 C.3    74  HIS74       0.0759
    124  CG         4.5290    7.2050   10.6000 C.ar   74  HIS74       0.0818
    125  ND1        3.6560    7.4580   11.6210 N.ar   74  HIS74      -0.2268
    126  CD2        5.3530    8.2690   10.5600 C.ar   74  HIS74       0.1154
    127  CE1        3.9340    8.6180   12.1650 C.ar   74  HIS74       0.1986
    128  NE2        4.9590    9.1410   11.5390 N.ar   74  HIS74      -0.2212
    129  N          5.4950    3.3520    7.9850 N.am   75  ILE75      -0.1980
    130  CA         5.1420    2.0240    7.4820 C.3    75  ILE75       0.1595
    131  C          6.2770    1.0490    7.7040 C.2    75  ILE75       0.2287
    132  O          6.0530   -0.0080    8.2260 O.2    75  ILE75      -0.2864
    133  CB         4.7920    1.9720    5.9570 C.3    75  ILE75       0.0276
    134  CG1        3.9290    3.1210    5.5180 C.3    75  ILE75       0.0022
    135  CG2        4.0580    0.6980    5.6500 C.3    75  ILE75       0.0022
    136  CD1        3.5000    3.0540    4.0540 C.3    75  ILE75       0.0001
    137  N          7.0310   -1.8030   10.1600 N.3    78  ASP78      -0.1239
    138  CA         6.0680   -2.8940   10.0820 C.3    78  ASP78       0.1674
    139  C          6.6280   -4.3010   10.5030 C.2    78  ASP78       0.2266
    140  O          7.5180   -4.4130   11.3480 O.2    78  ASP78      -0.2867
    141  CB         5.5780   -2.9540    8.6510 C.3    78  ASP78       0.1410
    142  CG         6.6930   -3.2760    7.6740 C.2    78  ASP78       0.3668
    143  OD1        7.3550   -2.3630    7.2000 O.co2  78  ASP78      -0.2456
    144  OD2        6.8380   -4.4320    7.3200 O.co2  78  ASP78      -0.2456
    145  N          3.9570   -6.5520    9.2900 N.3    80  ARG80      -0.1231
    146  CA         2.6930   -6.8200    8.6130 C.3    80  ARG80       0.1694
    147  C          2.8740   -7.3740    7.1800 C.2    80  ARG80       0.2592
    148  O          2.5260   -8.4640    6.8670 O.2    80  ARG80      -0.2718
    149  CB         1.9430   -5.4890    8.5050 C.3    80  ARG80       0.0321
    150  CG         1.3160   -4.9810    9.7840 C.3    80  ARG80       0.0489
    151  CD         0.8010   -3.5760    9.5660 C.3    80  ARG80       0.2205
    152  NE        -0.1030   -3.1170   10.6140 N.pl3  80  ARG80      -0.0865
    153  CZ        -0.1430   -1.8660   11.1200 C.cat  80  ARG80       0.5346
    154  NH1        0.7580   -0.9620   10.7480 N.pl3  80  ARG80       0.1354
    155  NH2       -1.0750   -1.5300   12.0030 N.pl3  80  ARG80       0.1354
    156  N          3.4270   -6.5850    6.3530 N.am   81  HIS81      -0.1976
    157  CA         3.5570   -6.8540    4.9360 C.3    81  HIS81       0.1656
    158  C          4.9550   -7.3100    4.6070 C.2    81  HIS81       0.2291
    159  O          5.8310   -6.4880    4.3740 O.2    81  HIS81      -0.2864
    160  CB         3.1230   -5.6250    4.0760 C.3    81  HIS81       0.0771
    161  CG         3.7750   -4.2970    4.4400 C.ar   81  HIS81       0.0820
    162  ND1        3.5960   -3.1290    3.7490 N.ar   81  HIS81      -0.2267
    163  CD2        4.5810   -3.9650    5.4620 C.ar   81  HIS81       0.1154
    164  CE1        4.2740   -2.1850    4.3610 C.ar   81  HIS81       0.1986
    165  NE2        4.8540   -2.6720    5.3820 N.ar   81  HIS81      -0.2212
    166  N         -6.1150    7.4220   -2.3000 N.3   100  TRP100     -0.1241
    167  CA        -5.4960    6.1200   -2.2020 C.3   100  TRP100      0.1605
    168  C         -6.5800    5.0130   -2.1840 C.2   100  TRP100      0.2264
    169  O         -7.6660    5.2010   -1.6080 O.2   100  TRP100     -0.2867
    170  CB        -4.5570    6.1060   -0.9770 C.3   100  TRP100      0.0550
    171  CG        -3.9980    4.7910   -0.5590 C.ar  100  TRP100      0.0003
    172  CD1       -2.7700    4.2820   -0.8080 C.ar  100  TRP100      0.0946
    173  CD2       -4.6640    3.8460    0.2310 C.ar  100  TRP100      0.0152
    174  NE1       -2.6610    3.0560   -0.2400 N.ar  100  TRP100     -0.2442
    175  CE2       -3.8190    2.7680    0.4090 C.ar  100  TRP100      0.0810
    176  CE3       -5.9100    3.8120    0.7940 C.ar  100  TRP100      0.0012
    177  CZ2       -4.2040    1.6680    1.1420 C.ar  100  TRP100      0.0191
    178  CZ3       -6.2950    2.7790    1.4880 C.ar  100  TRP100      0.0001
    179  CH2       -5.4640    1.7140    1.6690 C.ar  100  TRP100      0.0015
    180  N         -7.6140    0.5980   -2.0300 N.3   102  MET102     -0.1245
    181  CA        -7.2570   -0.6950   -1.4690 C.3   102  MET102      0.1570
    182  C         -8.2850   -1.6830   -1.9950 C.2   102  MET102      0.2261
    183  O         -9.4650   -1.3410   -2.0870 O.2   102  MET102     -0.2867
    184  CB        -7.3580   -0.6380    0.0620 C.3   102  MET102      0.0387
    185  CG        -6.3960   -1.5530    0.8450 C.3   102  MET102      0.0595
    186  SD        -6.5150   -3.3160    0.4630 S.3   102  MET102     -0.1393
    187  CE        -5.3180   -4.0060    1.6180 C.3   102  MET102      0.0692
@<TRIPOS>BOND
     1    79    78    2
     2    78    77    1
     3    76    77    1
     4     4     3    2
     5     1     2    1
     6    77    80    1
     7    95    96    1
     8   107   106    2
     9     3     2    1
    10   106   105    1
    11    87    86    2
    12    86    85    1
    13    97    98    2
    14    97    96    1
    15   104   105    1
    16     2     5    1
    17    96    99    1
    18   105   108    1
    19    84    85    1
    20    85    88    1
    21    80    81    1
    22   166   167    1
    23   167   168    1
    24   167   170    1
    25   168   169    2
    26   183   182    2
    27   180   181    1
    28    83    81    1
    29   182   181    1
    30     5     6    1
    31    81    82    1
    32    99   100    1
    33   181   184    1
    34   108   109    1
    35    88    89    1
    36     6     7   ar
    37     6     8   ar
    38   100   101    1
    39   170   171    1
    40   109   111    1
    41   109   110    1
    42   172   171   ar
    43   172   174   ar
    44   101   103   am
    45   101   102    2
    46     7     9   ar
    47   171   173   ar
    48     8    10   ar
    49   174   175   ar
    50    90    89   ar
    51    90    92   ar
    52    89    91   ar
    53   184   185    1
    54     9    11   ar
    55   173   175   ar
    56   173   176   ar
    57   175   177   ar
    58   186   185    1
    59   186   187    1
    60    75    73   am
    61    10    11   ar
    62    11    12    1
    63   176   178   ar
    64    92    94   ar
    65   177   179   ar
    66    91    93   ar
    67   178   179   ar
    68    73    72    1
    69    73    74    2
    70    71    70    2
    71    72    69    1
    72    94    93   ar
    73    70    69    1
    74    69    68    1
    75   162   164   ar
    76   162   161   ar
    77   117   116    1
    78   136   134    1
    79   160   161    1
    80   160   157    1
    81    68    60   am
    82    57    56    1
    83   164   165   ar
    84   116   118    1
    85   116   113    1
    86   159   158    2
    87    55    54    2
    88   161   163   ar
    89    27    26    1
    90   158   157    1
    91    26    25    1
    92    26    28    1
    93    56    53    1
    94    54    53    1
    95   157   156    1
    96    61    60    2
    97    60    59    1
    98    25    22    1
    99   165   163   ar
   100   134   133    1
   101    19    18    1
   102    53    52    1
   103   114   113    1
   104   114   115    2
   105   113   112    1
   106    43    41    1
   107   135   133    1
   108   133   130    1
   109    24    23    2
   110   156   147   am
   111    22    23    1
   112    22    21    1
   113    40    39    2
   114    59    58    1
   115    59    62    1
   116    39    38    1
   117    52    47   am
   118    41    38    1
   119    41    42    1
   120   148   147    2
   121    18    17    1
   122    18    20    1
   123    62    63    1
   124    65    63   ar
   125    65    67   ar
   126   147   146    1
   127    44    42    1
   128   143   142   ar
   129   144   142   ar
   130    17    14    1
   131    63    64   ar
   132   130   131    1
   133   130   129    1
   134    67    66   ar
   135    38    37    1
   136   142   141    1
   137   131   132    2
   138    47    48    2
   139    47    46    1
   140    64    66   ar
   141   129   121   am
   142    45    46    1
   143   149   146    1
   144   149   150    1
   145    37    31   am
   146   146   145    1
   147    16    15    2
   148   141   138    1
   149    14    15    1
   150    14    13    1
   151    46    49    1
   152   119   120    1
   153    29    30    1
   154    32    31    2
   155    31    30    1
   156   121   120    1
   157   121   122    2
   158    51    49    1
   159   151   150    1
   160   151   152    1
   161   123   120    1
   162   123   124    1
   163    30    33    1
   164    49    50    1
   165   138   137    1
   166   138   139    1
   167   139   140    2
   168   126   124   ar
   169   126   128   ar
   170   124   125   ar
   171   152   153    2
   172   154   153    1
   173   153   155    1
   174    33    34    1
   175   128   127   ar
   176   125   127   ar
   177    34    36   ar
   178    34    35   ar
