@<TRIPOS>MOLECULE
tmp/2bv3A00.pdb
 115 111 0 0 0
SMALL
GASTEIGER

@<TRIPOS>ATOM
      1  N         -2.2770   35.3190   43.4580 N.3    14  HIS14      -0.1226
      2  CA        -0.9050   34.8080   43.5590 C.3    14  HIS14       0.1752
      3  C         -0.6450   33.8850   42.3660 C.2    14  HIS14       0.2596
      4  O         -1.5820   33.5020   41.6550 O.2    14  HIS14      -0.2718
      5  CB        -0.7360   34.0150   44.8540 C.3    14  HIS14       0.0759
      6  CG         0.5610   34.2640   45.5570 C.ar   14  HIS14       0.0818
      7  ND1        1.7800   33.8920   45.0310 N.ar   14  HIS14      -0.2268
      8  CD2        0.8290   34.8460   46.7500 C.ar   14  HIS14       0.1154
      9  CE1        2.7440   34.2400   45.8680 C.ar   14  HIS14       0.1986
     10  NE2        2.1930   34.8180   46.9210 N.ar   14  HIS14      -0.2212
     11  N          0.6130   33.5150   42.1440 N.am   15  ILE15      -0.1966
     12  CA         0.9600   32.6490   41.0030 C.3    15  ILE15       0.1727
     13  C          0.5280   31.1760   41.1660 C.2    15  ILE15       0.2616
     14  O          0.5510   30.3950   40.2090 O.2    15  ILE15      -0.2715
     15  CB         2.4730   32.7330   40.6210 C.3    15  ILE15       0.0290
     16  CG1        3.3750   32.5100   41.8430 C.3    15  ILE15       0.0022
     17  CG2        2.7820   34.0630   39.9310 C.3    15  ILE15       0.0023
     18  CD1        3.6290   31.0530   42.1810 C.3    15  ILE15       0.0001
     19  N          0.1470   30.7830   42.3720 N.am   16  ASP16      -0.1971
     20  CA        -0.2540   29.4050   42.5670 C.3    16  ASP16       0.1709
     21  C         -1.7450   29.2750   42.8790 C.2    16  ASP16       0.2293
     22  O         -2.2510   28.1670   42.9850 O.2    16  ASP16      -0.2864
     23  CB         0.5930   28.7570   43.6670 C.3    16  ASP16       0.1436
     24  CG         1.0010   27.3320   43.3300 C.2    16  ASP16       0.3671
     25  OD1        1.7190   27.1400   42.3170 O.co2  16  ASP16      -0.2456
     26  OD2        0.6180   26.4100   44.0890 O.co2  16  ASP16      -0.2456
     27  N         -4.7140   29.9960   41.2920 N.3    18  GLY18      -0.1210
     28  CA        -5.6600   29.3630   40.3670 C.3    18  GLY18       0.1956
     29  C         -6.3460   30.2870   39.3720 C.2    18  GLY18       0.2612
     30  O         -7.4740   30.0280   38.9660 O.2    18  GLY18      -0.2717
     31  N         -5.6520   31.3460   38.9690 N.am   19  LYS19      -0.1965
     32  CA        -6.1540   32.3370   38.0120 C.3    19  LYS19       0.1728
     33  C         -6.5050   31.7170   36.6500 C.2    19  LYS19       0.2617
     34  O         -7.5210   32.0700   36.0340 O.2    19  LYS19      -0.2715
     35  CB        -5.0960   33.4470   37.8280 C.3    19  LYS19       0.0311
     36  CG        -5.4770   34.5350   36.8340 C.3    19  LYS19       0.0038
     37  CD        -4.2700   35.2280   36.2170 C.3    19  LYS19       0.0206
     38  CE        -4.7120   36.1730   35.0860 C.3    19  LYS19       0.1093
     39  NZ        -3.7470   37.2960   34.8350 N.3    19  LYS19      -0.1314
     40  N         -5.6490   30.8070   36.1960 N.am   20  THR20      -0.1937
     41  CA        -5.7240   30.2250   34.8570 C.3    20  THR20       0.2028
     42  C         -6.8290   29.1980   34.7930 C.2    20  THR20       0.2642
     43  O         -7.6740   29.2430   33.8920 O.2    20  THR20      -0.2714
     44  CB        -4.3640   29.5680   34.4420 C.3    20  THR20       0.1808
     45  OG1       -3.4150   30.5960   34.1600 O.3    20  THR20      -0.2208
     46  CG2       -4.5110   28.6890   33.2000 C.3    20  THR20       0.0379
     47  N         -6.8260   28.2710   35.7470 N.am   21  THR21      -0.1950
     48  CA        -7.8770   27.2750   35.7850 C.3    21  THR21       0.1897
     49  C         -9.2480   27.8830   36.0730 C.2    21  THR21       0.2313
     50  O        -10.2520   27.3990   35.5400 O.2    21  THR21      -0.2863
     51  CB        -7.5290   26.0090   36.6310 C.3    21  THR21       0.1794
     52  OG1       -8.6760   25.5870   37.3710 O.3    21  THR21      -0.2208
     53  CG2       -6.3940   26.2510   37.5730 C.3    21  THR21       0.0378
     54  N        -10.5710   29.9590   46.7300 N.3   112  ASN112     -0.1225
     55  CA       -10.3760   28.8070   45.8610 C.3   112  ASN112      0.1785
     56  C         -9.7120   27.6170   46.6160 C.2   112  ASN112      0.2597
     57  O         -9.2990   27.7560   47.7740 O.2   112  ASN112     -0.2718
     58  CB        -9.5910   29.2670   44.6200 C.3   112  ASN112      0.1169
     59  CG        -9.5290   28.2210   43.5060 C.2   112  ASN112      0.2627
     60  OD1       -8.4860   28.0660   42.8560 O.2   112  ASN112     -0.2716
     61  ND2      -10.6330   27.5020   43.2790 N.am  112  ASN112     -0.0877
     62  N         -9.6750   26.4460   45.9720 N.am  113  LYS113     -0.1980
     63  CA        -9.0640   25.2200   46.5180 C.3   113  LYS113      0.1596
     64  C         -9.7250   24.7240   47.7980 C.2   113  LYS113      0.2287
     65  O         -9.0570   24.1770   48.6880 O.2   113  LYS113     -0.2864
     66  CB        -7.5440   25.3660   46.7260 C.3   113  LYS113      0.0298
     67  CG        -6.7930   25.8340   45.4920 C.3   113  LYS113      0.0038
     68  CD        -5.2970   25.6080   45.6130 C.3   113  LYS113      0.0206
     69  CE        -4.5570   26.5020   44.6350 C.3   113  LYS113      0.1093
     70  NZ        -3.2150   25.9620   44.2960 N.3   113  LYS113     -0.1314
     71  N        -11.2380   22.1860   48.2460 N.3   115  ASP115     -0.1225
     72  CA       -11.1050   20.7110   48.2930 C.3   115  ASP115      0.1805
     73  C         -9.8070   20.2320   48.9220 C.2   115  ASP115      0.2597
     74  O         -9.6950   19.0680   49.3240 O.2   115  ASP115     -0.2718
     75  CB       -11.1980   20.1050   46.8860 C.3   115  ASP115      0.1424
     76  CG       -10.0800   20.5760   45.9590 C.2   115  ASP115      0.3668
     77  OD1      -10.0710   21.7730   45.5700 O.co2 115  ASP115     -0.2456
     78  OD2       -9.2130   19.7450   45.6050 O.co2 115  ASP115     -0.2456
     79  N         -8.8240   21.1310   48.9750 N.am  116  LYS116     -0.1979
     80  CA        -7.4440   20.8160   49.3560 C.3   116  LYS116      0.1596
     81  C         -7.3170   20.7530   50.8650 C.2   116  LYS116      0.2287
     82  O         -7.9490   21.5310   51.5770 O.2   116  LYS116     -0.2864
     83  CB        -6.5150   21.9010   48.8160 C.3   116  LYS116      0.0298
     84  CG        -5.0970   21.4860   48.5410 C.3   116  LYS116      0.0038
     85  CD        -4.3870   22.6280   47.8350 C.3   116  LYS116      0.0206
     86  CE        -2.8580   22.5270   47.9300 C.3   116  LYS116      0.1093
     87  NZ        -2.2760   21.6050   46.9210 N.3   116  LYS116     -0.1314
     88  N        -14.0640   25.3570   44.2220 N.3   237  SER237     -0.1202
     89  CA       -12.9200   24.6440   43.7140 C.3   237  SER237      0.2020
     90  C        -13.0000   24.6450   42.1970 C.2   237  SER237      0.2619
     91  O        -13.7820   23.8970   41.6140 O.2   237  SER237     -0.2717
     92  CB       -12.9220   23.2250   44.2540 C.3   237  SER237      0.2103
     93  OG       -11.9090   22.4640   43.6460 O.3   237  SER237     -0.2182
     94  N        -12.2160   25.5120   41.5610 N.am  238  ALA238     -0.1965
     95  CA       -12.1680   25.5900   40.1050 C.3   238  ALA238      0.1728
     96  C        -11.7460   24.2500   39.4960 C.2   238  ALA238      0.2616
     97  O        -12.3010   23.8270   38.4880 O.2   238  ALA238     -0.2715
     98  CB       -11.2200   26.7150   39.6530 C.3   238  ALA238      0.0334
     99  N        -10.7780   23.5850   40.1200 N.am  239  LEU239     -0.1963
    100  CA       -10.2640   22.3230   39.6100 C.3   239  LEU239      0.1728
    101  C        -11.3140   21.2220   39.6540 C.2   239  LEU239      0.2616
    102  O        -11.4230   20.4320   38.7190 O.2   239  LEU239     -0.2715
    103  CB        -9.0050   21.8900   40.3740 C.3   239  LEU239      0.0311
    104  CG        -8.3390   20.5630   39.9620 C.3   239  LEU239      0.0022
    105  CD1       -7.7490   20.6190   38.5450 C.3   239  LEU239      0.0001
    106  CD2       -7.2610   20.1420   40.9630 C.3   239  LEU239      0.0001
    107  N        -12.0870   21.1760   40.7330 N.am  240  LYS240     -0.1977
    108  CA       -13.0990   20.1390   40.8850 C.3   240  LYS240      0.1596
    109  C        -14.4770   20.6560   40.4740 C.2   240  LYS240      0.2287
    110  O        -15.4990   20.0860   40.8330 O.2   240  LYS240     -0.2864
    111  CB       -13.0980   19.5730   42.3090 C.3   240  LYS240      0.0298
    112  CG       -11.7060   19.2750   42.8160 C.3   240  LYS240      0.0038
    113  CD       -11.6100   17.9480   43.5180 C.3   240  LYS240      0.0206
    114  CE       -10.1470   17.4640   43.5230 C.3   240  LYS240      0.1093
    115  NZ        -9.9630   16.3500   44.4900 N.3   240  LYS240     -0.1314
@<TRIPOS>BOND
     1    46    44    1
     2    43    42    2
     3    45    44    1
     4    44    41    1
     5    42    41    1
     6    42    47   am
     7    39    38    1
     8    41    40    1
     9    38    37    1
    10    50    49    2
    11    47    48    1
    12    48    49    1
    13    48    51    1
    14    34    33    2
    15    40    33   am
    16    37    36    1
    17    51    52    1
    18    51    53    1
    19    33    32    1
    20    36    35    1
    21    35    32    1
    22    32    31    1
    23    97    96    2
    24   105   104    1
    25   102   101    2
    26    30    29    2
    27    31    29   am
    28    29    28    1
    29    96    95    1
    30    96    99   am
    31   100   101    1
    32   100    99    1
    33   100   103    1
    34    98    95    1
    35   101   107   am
    36    17    15    1
    37   104   103    1
    38   104   106    1
    39    95    94    1
    40    14    13    2
    41    28    27    1
    42   109   110    2
    43   109   108    1
    44    15    12    1
    45    15    16    1
    46   107   108    1
    47   108   111    1
    48    12    13    1
    49    12    11    1
    50    13    19   am
    51    94    90   am
    52    91    90    2
    53     4     3    2
    54    16    18    1
    55    11     3   am
    56    90    89    1
    57   111   112    1
    58    25    24   ar
    59     3     2    1
    60    19    20    1
    61    20    21    1
    62    20    23    1
    63   112   113    1
    64    60    59    2
    65    21    22    2
    66    61    59   am
    67    24    23    1
    68    24    26   ar
    69     1     2    1
    70    59    58    1
    71   113   114    1
    72   114   115    1
    73     2     5    1
    74    93    92    1
    75    89    88    1
    76    89    92    1
    77    70    69    1
    78    58    55    1
    79    69    68    1
    80     5     6    1
    81     7     6   ar
    82     7     9   ar
    83    67    68    1
    84    67    66    1
    85     6     8   ar
    86    77    76   ar
    87    78    76   ar
    88    55    56    1
    89    55    54    1
    90     9    10   ar
    91    76    75    1
    92    62    63    1
    93    62    56   am
    94    63    66    1
    95    63    64    1
    96    56    57    2
    97     8    10   ar
    98    75    72    1
    99    87    86    1
   100    64    65    2
   101    85    86    1
   102    85    84    1
   103    71    72    1
   104    72    73    1
   105    84    83    1
   106    83    80    1
   107    73    79   am
   108    73    74    2
   109    79    80    1
   110    80    81    1
   111    81    82    2
