@<TRIPOS>MOLECULE
tmp/2bv4A00.pdb
 91 85 0 0 0
SMALL
GASTEIGER

@<TRIPOS>ATOM
      1  N         10.1410   13.1480    2.5320 N.3    21  ASN21      -0.1225
      2  CA        10.1280   12.9340    1.0790 C.3    21  ASN21       0.1785
      3  C          8.7960   12.3350    0.7030 C.2    21  ASN21       0.2598
      4  O          8.7010   11.1310    0.4120 O.2    21  ASN21      -0.2718
      5  CB        11.2470   11.9760    0.6230 C.3    21  ASN21       0.1169
      6  CG        12.6200   12.5470    0.8270 C.2    21  ASN21       0.2627
      7  OD1       13.1640   13.2650   -0.0290 O.2    21  ASN21      -0.2716
      8  ND2       13.2350   12.1970    1.9690 N.am   21  ASN21      -0.0877
      9  N          7.7440   13.1320    0.7860 N.am   22  SER22      -0.1938
     10  CA         6.3870   12.6110    0.6010 C.3    22  SER22       0.2055
     11  C          5.4520   13.7190    0.1850 C.2    22  SER22       0.2643
     12  O          5.5900   14.8670    0.5840 O.2    22  SER22      -0.2714
     13  CB         5.8500   12.0560    1.9270 C.3    22  SER22       0.2130
     14  OG         4.5810   11.3070    1.5520 O.3    22  SER22      -0.2179
     15  N          4.4200   13.3480   -0.5820 N.am   23  ALA23      -0.1963
     16  CA         3.3000   14.2180   -0.8680 C.3    23  ALA23       0.1728
     17  C          2.2710   14.2600    0.2570 C.2    23  ALA23       0.2616
     18  O          1.4210   15.1550    0.2840 O.2    23  ALA23      -0.2715
     19  CB         2.6210   13.7580   -2.1790 C.3    23  ALA23       0.0334
     20  N          2.3070   13.2920    1.1770 N.am   24  ALA24      -0.1977
     21  CA         1.4150   13.2440    2.3110 C.3    24  ALA24       0.1597
     22  C          2.0850   13.9210    3.4960 C.2    24  ALA24       0.2287
     23  O          3.2720   13.7360    3.7480 O.2    24  ALA24      -0.2864
     24  CB         1.0920   11.8250    2.6750 C.3    24  ALA24       0.0319
     25  N          8.6660   16.7820   -1.0080 N.3    45  THR45      -0.1218
     26  CA         9.3400   15.6930   -1.6850 C.3    45  THR45       0.1862
     27  C         10.8290   15.9500   -1.9010 C.2    45  THR45       0.2287
     28  O         11.5090   15.1390   -2.5560 O.2    45  THR45      -0.2866
     29  CB         8.6580   15.3750   -3.0040 C.3    45  THR45       0.1770
     30  OG1        8.5890   16.5440   -3.8130 O.3    45  THR45      -0.2211
     31  CG2        7.2540   14.8390   -2.7870 C.3    45  THR45       0.0375
     32  N         -1.7490   10.2360    6.6930 N.3    69  ASN69      -0.1240
     33  CA        -3.1080    9.8220    6.3170 C.3    69  ASN69       0.1653
     34  C         -3.8020    9.0700    7.4390 C.2    69  ASN69       0.2266
     35  O         -4.6520    8.2180    7.1890 O.2    69  ASN69      -0.2867
     36  CB        -3.1080    8.9950    5.0440 C.3    69  ASN69       0.1155
     37  CG        -2.4960    9.7120    3.8820 C.2    69  ASN69       0.2627
     38  OD1       -2.9630   10.7900    3.4940 O.2    69  ASN69      -0.2716
     39  ND2       -1.4390    9.1330    3.2940 N.am   69  ASN69      -0.0877
     40  N          7.5160    4.1130    5.2960 N.3    94  GLU94      -0.1231
     41  CA         6.7520    4.0270    4.0720 C.3    94  GLU94       0.1699
     42  C          5.2700    4.2590    4.3960 C.2    94  GLU94       0.2592
     43  O          4.6500    3.5110    5.1670 O.2    94  GLU94      -0.2718
     44  CB         6.9520    2.6570    3.3960 C.3    94  GLU94       0.0402
     45  CG         6.1500    2.4970    2.1240 C.3    94  GLU94       0.1161
     46  CD         6.3960    3.6140    1.1440 C.2    94  GLU94       0.3649
     47  OE1        7.5650    3.9340    0.8360 O.co2  94  GLU94      -0.2457
     48  OE2        5.4090    4.2450    0.6480 O.co2  94  GLU94      -0.2457
     49  N          4.7100    5.2730    3.7670 N.am   95  ASP95      -0.1960
     50  CA         3.3360    5.7040    3.9700 C.3    95  ASP95       0.1840
     51  C          2.4080    5.2410    2.8510 C.2    95  ASP95       0.2623
     52  O          1.1860    5.5490    2.9130 O.2    95  ASP95      -0.2715
     53  CB         3.2360    7.2230    4.1380 C.3    95  ASP95       0.1450
     54  CG         3.6150    8.0030    2.8970 C.2    95  ASP95       0.3671
     55  OD1        3.4840    7.4360    1.7840 O.co2  95  ASP95      -0.2456
     56  OD2        3.9670    9.2000    3.0560 O.co2  95  ASP95      -0.2456
     57  N          2.9110    4.5160    1.8670 N.am   96  GLY96      -0.1940
     58  CA         2.1770    4.2800    0.6360 C.3    96  GLY96       0.2014
     59  C          2.5740    2.9880   -0.0060 C.2    96  GLY96       0.2640
     60  O          2.7530    1.9730    0.6550 O.2    96  GLY96      -0.2714
     61  N          2.6750    3.0420   -1.3400 N.am   97  THR97      -0.1936
     62  CA         2.7750    1.8490   -2.1900 C.3    97  THR97       0.2028
     63  C          4.0690    1.6990   -2.9510 C.2    97  THR97       0.2642
     64  O          4.2760    0.6640   -3.5840 O.2    97  THR97      -0.2714
     65  CB         1.6250    1.8420   -3.2050 C.3    97  THR97       0.1808
     66  OG1        1.7190    3.0150   -4.0070 O.3    97  THR97      -0.2208
     67  CG2        0.3130    1.8690   -2.4960 C.3    97  THR97       0.0379
     68  N          4.9460    2.7120   -2.9680 N.am   98  ASP98      -0.1971
     69  CA         6.1210    2.6730   -3.8050 C.3    98  ASP98       0.1709
     70  C          7.3630    2.1010   -3.1230 C.2    98  ASP98       0.2293
     71  O          8.3980    1.9800   -3.7700 O.2    98  ASP98      -0.2864
     72  CB         6.4180    4.0570   -4.4080 C.3    98  ASP98       0.1436
     73  CG         6.8300    5.0850   -3.3910 C.2    98  ASP98       0.3671
     74  OD1        6.6880    4.8560   -2.1740 O.co2  98  ASP98      -0.2456
     75  OD2        7.3000    6.1590   -3.8240 O.co2  98  ASP98      -0.2456
     76  N          9.6580    3.2080   -1.1890 N.3   100  ASP100     -0.1239
     77  CA        10.8880    3.9960   -1.1490 C.3   100  ASP100      0.1674
     78  C         11.4390    4.2170    0.2520 C.2   100  ASP100      0.2266
     79  O         12.6170    4.5310    0.4080 O.2   100  ASP100     -0.2867
     80  CB        10.8090    5.2690   -2.0100 C.3   100  ASP100      0.1410
     81  CG         9.8600    6.3550   -1.5230 C.2   100  ASP100      0.3668
     82  OD1        9.1000    6.1460   -0.5500 O.co2 100  ASP100     -0.2456
     83  OD2        9.9280    7.4540   -2.1340 O.co2 100  ASP100     -0.2456
     84  N          9.7700    8.3940    3.3360 N.3   103  ASP103     -0.1239
     85  CA         8.6580    9.3570    3.4050 C.3   103  ASP103      0.1674
     86  C          8.8210   10.2870    4.6060 C.2   103  ASP103      0.2266
     87  O          8.6620   11.5080    4.4860 O.2   103  ASP103     -0.2867
     88  CB         7.3320    8.6160    3.3960 C.3   103  ASP103      0.1410
     89  CG         7.1110    7.8360    2.1100 C.2   103  ASP103      0.3668
     90  OD1        7.5240    8.3040    1.0090 O.co2 103  ASP103     -0.2456
     91  OD2        6.5290    6.7370    2.1610 O.co2 103  ASP103     -0.2456
@<TRIPOS>BOND
     1    72    69    1
     2    72    73    1
     3    66    65    1
     4    75    73   ar
     5    30    29    1
     6    69    70    1
     7    69    68    1
     8    71    70    2
     9    64    63    2
    10    73    74   ar
    11    65    67    1
    12    65    62    1
    13    29    31    1
    14    29    26    1
    15    68    63   am
    16    63    62    1
    17    28    27    2
    18    62    61    1
    19    19    16    1
    20    83    81   ar
    21    80    81    1
    22    80    77    1
    23    27    26    1
    24    26    25    1
    25    81    82   ar
    26    61    59   am
    27    76    77    1
    28    77    78    1
    29    16    15    1
    30    16    17    1
    31    15    11   am
    32     7     6    2
    33    59    58    1
    34    59    60    2
    35    11    12    2
    36    11    10    1
    37    78    79    2
    38    17    18    2
    39    17    20   am
    40     4     3    2
    41    10     9    1
    42    10    13    1
    43     5     6    1
    44     5     2    1
    45    58    57    1
    46    48    46   ar
    47     3     9   am
    48     3     2    1
    49     6     8   am
    50    47    46   ar
    51    90    89   ar
    52     2     1    1
    53    46    45    1
    54    20    21    1
    55    14    13    1
    56    55    54   ar
    57    57    51   am
    58    89    91   ar
    59    89    88    1
    60    45    44    1
    61    21    24    1
    62    21    22    1
    63    51    52    2
    64    51    50    1
    65    54    56   ar
    66    54    53    1
    67    39    37   am
    68    84    85    1
    69    44    41    1
    70    88    85    1
    71    85    86    1
    72    38    37    2
    73    22    23    2
    74    49    50    1
    75    49    42   am
    76    37    36    1
    77    50    53    1
    78    41    42    1
    79    41    40    1
    80    42    43    2
    81    87    86    2
    82    36    33    1
    83    33    32    1
    84    33    34    1
    85    35    34    2
