@<TRIPOS>MOLECULE
tmp/2bvcE01.pdb
 230 223 0 0 0
SMALL
GASTEIGER

@<TRIPOS>ATOM
      1  N         54.5930   71.3110   26.6260 N.3   126  TYR126     -0.1241
      2  CA        53.6260   70.2460   26.3680 C.3   126  TYR126      0.1605
      3  C         53.0130   69.6900   27.6560 C.2   126  TYR126      0.2264
      4  O         53.7140   69.4870   28.6570 O.2   126  TYR126     -0.2867
      5  CB        54.2420   69.1240   25.5250 C.3   126  TYR126      0.0534
      6  CG        54.5290   69.5270   24.0870 C.ar  126  TYR126     -0.0201
      7  CD1       53.4850   69.8380   23.2040 C.ar  126  TYR126     -0.0009
      8  CD2       55.8400   69.6000   23.6150 C.ar  126  TYR126     -0.0009
      9  CE1       53.7380   70.2080   21.8830 C.ar  126  TYR126      0.0417
     10  CE2       56.1120   69.9690   22.2870 C.ar  126  TYR126      0.0417
     11  CZ        55.0590   70.2730   21.4320 C.ar  126  TYR126      0.1957
     12  OH        55.3200   70.6360   20.1310 O.3   126  TYR126     -0.2866
     13  N         50.3400   66.6320   28.9960 N.3   128  GLY128     -0.1210
     14  CA        49.5380   65.4260   28.8530 C.3   128  GLY128      0.1956
     15  C         48.8240   65.2050   30.1670 C.2   128  GLY128      0.2612
     16  O         49.4640   64.9650   31.1850 O.2   128  GLY128     -0.2717
     17  N         47.4970   65.3040   30.1520 N.am  129  ALA129     -0.1965
     18  CA        46.7140   65.2440   31.3830 C.3   129  ALA129      0.1728
     19  C         45.8260   64.0030   31.4440 C.2   129  ALA129      0.2616
     20  O         45.1380   63.6720   30.4680 O.2   129  ALA129     -0.2715
     21  CB        45.8870   66.5090   31.5460 C.3   129  ALA129      0.0334
     22  N         45.8520   63.3230   32.5910 N.am  130  GLU130     -0.1977
     23  CA        45.0180   62.1450   32.8220 C.3   130  GLU130      0.1602
     24  C         43.8920   62.4970   33.7750 C.2   130  GLU130      0.2287
     25  O         44.0930   62.5070   34.9920 O.2   130  GLU130     -0.2864
     26  CB        45.8270   61.0200   33.4490 C.3   130  GLU130      0.0415
     27  CG        47.0740   60.6170   32.7100 C.3   130  GLU130      0.1163
     28  CD        48.0220   59.9010   33.6260 C.2   130  GLU130      0.3649
     29  OE1       49.0730   60.4800   33.9420 O.co2 130  GLU130     -0.2457
     30  OE2       47.7090   58.7740   34.0740 O.co2 130  GLU130     -0.2457
     31  N         44.8290   57.4790   22.8780 N.3   211  GLU211     -0.1231
     32  CA        45.8750   56.5440   23.2580 C.3   211  GLU211      0.1699
     33  C         45.3010   55.2660   23.8790 C.2   211  GLU211      0.2592
     34  O         45.6400   54.1620   23.4410 O.2   211  GLU211     -0.2718
     35  CB        46.8730   57.2250   24.2040 C.3   211  GLU211      0.0402
     36  CG        47.6940   58.3150   23.5160 C.3   211  GLU211      0.1161
     37  CD        48.7540   58.9410   24.4020 C.2   211  GLU211      0.3649
     38  OE1       48.9370   58.4970   25.5630 O.co2 211  GLU211     -0.2457
     39  OE2       49.4130   59.8970   23.9320 O.co2 211  GLU211     -0.2457
     40  N         44.4530   55.4210   24.9030 N.am  212  LYS212     -0.1980
     41  CA        43.7660   54.2850   25.5360 C.3   212  LYS212      0.1596
     42  C         42.5820   54.6530   26.4400 C.2   212  LYS212      0.2287
     43  O         42.3800   55.8260   26.7710 O.2   212  LYS212     -0.2864
     44  CB        44.7420   53.3650   26.2820 C.3   212  LYS212      0.0298
     45  CG        45.5060   53.9910   27.4210 C.3   212  LYS212      0.0038
     46  CD        46.0580   52.8950   28.3260 C.3   212  LYS212      0.0206
     47  CE        47.2390   53.3450   29.1450 C.3   212  LYS212      0.1093
     48  NZ        47.0010   54.5810   29.9210 N.3   212  LYS212     -0.1314
     49  N         40.3000   52.7440   29.9170 N.3   214  HIS214     -0.1241
     50  CA        40.1900   51.6400   30.8750 C.3   214  HIS214      0.1621
     51  C         39.3730   51.9830   32.1250 C.2   214  HIS214      0.2264
     52  O         39.1420   53.1580   32.4140 O.2   214  HIS214     -0.2867
     53  CB        41.5890   51.1300   31.2740 C.3   214  HIS214      0.0745
     54  CG        42.4880   52.1790   31.8630 C.ar  214  HIS214      0.0817
     55  ND1       42.5020   52.4800   33.2080 N.ar  214  HIS214     -0.2268
     56  CD2       43.4290   52.9690   31.2930 C.ar  214  HIS214      0.1154
     57  CE1       43.4050   53.4170   33.4420 C.ar  214  HIS214      0.1986
     58  NE2       43.9850   53.7290   32.2960 N.ar  214  HIS214     -0.2212
     59  N         39.2330   56.0090   33.1230 N.3   224  GLU224     -0.1245
     60  CA        40.2380   56.9400   32.5970 C.3   224  GLU224      0.1567
     61  C         40.3550   56.7770   31.0780 C.2   224  GLU224      0.2260
     62  O         40.4060   55.6580   30.5720 O.2   224  GLU224     -0.2867
     63  CB        41.5960   56.6900   33.2680 C.3   224  GLU224      0.0388
     64  CG        42.7300   57.5960   32.7920 C.3   224  GLU224      0.1160
     65  CD        44.0480   57.3010   33.5000 C.2   224  GLU224      0.3649
     66  OE1       45.1140   57.3660   32.8450 O.co2 224  GLU224     -0.2457
     67  OE2       44.0250   57.0060   34.7150 O.co2 224  GLU224     -0.2457
     68  N         42.7990   58.3070   27.9200 N.3   226  ASN226     -0.1225
     69  CA        44.0030   59.0680   27.6070 C.3   226  ASN226      0.1785
     70  C         44.0750   59.5060   26.1430 C.2   226  ASN226      0.2597
     71  O         43.7760   58.7320   25.2330 O.2   226  ASN226     -0.2718
     72  CB        45.2510   58.2580   27.9680 C.3   226  ASN226      0.1169
     73  CG        45.2390   57.7720   29.4070 C.2   226  ASN226      0.2627
     74  OD1       45.1780   56.5680   29.6620 O.2   226  ASN226     -0.2716
     75  ND2       45.2870   58.7050   30.3560 N.am  226  ASN226     -0.0877
     76  N         44.4700   60.7590   25.9410 N.am  227  TYR227     -0.1976
     77  CA        44.6440   61.3310   24.6210 C.3   227  TYR227      0.1639
     78  C         45.9900   62.0380   24.5430 C.2   227  TYR227      0.2290
     79  O         46.5910   62.3580   25.5760 O.2   227  TYR227     -0.2864
     80  CB        43.4990   62.2920   24.2720 C.3   227  TYR227      0.0560
     81  CG        43.2080   63.3480   25.3180 C.ar  227  TYR227     -0.0198
     82  CD1       43.8090   64.6060   25.2540 C.ar  227  TYR227     -0.0009
     83  CD2       42.3190   63.0950   26.3630 C.ar  227  TYR227     -0.0009
     84  CE1       43.5430   65.5770   26.2070 C.ar  227  TYR227      0.0417
     85  CE2       42.0500   64.0650   27.3290 C.ar  227  TYR227      0.0417
     86  CZ        42.6610   65.3020   27.2400 C.ar  227  TYR227      0.1957
     87  OH        42.3980   66.2600   28.1820 O.3   227  TYR227     -0.2866
     88  N         49.1420   64.4540   24.2330 N.3   229  PHE229     -0.1241
     89  CA        49.5570   65.7550   24.7540 C.3   229  PHE229      0.1605
     90  C         49.5570   66.8420   23.6840 C.2   229  PHE229      0.2264
     91  O         49.6500   66.5530   22.4900 O.2   229  PHE229     -0.2867
     92  CB        50.9450   65.6450   25.4050 C.3   229  PHE229      0.0534
     93  CG        52.0610   65.2990   24.4420 C.ar  229  PHE229     -0.0203
     94  CD1       52.8940   66.2970   23.9350 C.ar  229  PHE229     -0.0042
     95  CD2       52.2940   63.9820   24.0580 C.ar  229  PHE229     -0.0042
     96  CE1       53.9380   65.9890   23.0520 C.ar  229  PHE229     -0.0003
     97  CE2       53.3330   63.6660   23.1780 C.ar  229  PHE229     -0.0003
     98  CZ        54.1560   64.6720   22.6770 C.ar  229  PHE229     -0.0000
     99  N         46.7570   63.8850   36.8290 N.3   273  HIS273     -0.1241
    100  CA        48.2170   63.8520   36.6450 C.3   273  HIS273      0.1621
    101  C         48.5780   64.6060   35.3750 C.2   273  HIS273      0.2264
    102  O         47.9180   64.4360   34.3410 O.2   273  HIS273     -0.2867
    103  CB        48.7600   62.4220   36.5190 C.3   273  HIS273      0.0745
    104  CG        48.2920   61.4710   37.5780 C.ar  273  HIS273      0.0817
    105  ND1       48.2310   60.1100   37.3660 N.ar  273  HIS273     -0.2268
    106  CD2       47.8760   61.6730   38.8530 C.ar  273  HIS273      0.1154
    107  CE1       47.7970   59.5150   38.4620 C.ar  273  HIS273      0.1986
    108  NE2       47.5730   60.4400   39.3780 N.ar  273  HIS273     -0.2212
    109  N         51.5960   65.1940   32.7870 N.3   275  HIS275     -0.1226
    110  CA        52.8800   64.9160   32.1650 C.3   275  HIS275      0.1752
    111  C         53.3340   66.1810   31.4390 C.2   275  HIS275      0.2596
    112  O         52.5700   66.7650   30.6620 O.2   275  HIS275     -0.2718
    113  CB        52.7630   63.7380   31.1950 C.3   275  HIS275      0.0759
    114  CG        52.4580   62.4270   31.8590 C.ar  275  HIS275      0.0818
    115  ND1       53.3470   61.3730   31.8720 N.ar  275  HIS275     -0.2268
    116  CD2       51.3620   62.0000   32.5340 C.ar  275  HIS275      0.1154
    117  CE1       52.8150   60.3550   32.5270 C.ar  275  HIS275      0.1986
    118  NE2       51.6100   60.7100   32.9370 N.ar  275  HIS275     -0.2212
    119  N         54.5670   66.6110   31.7140 N.am  276  GLN276     -0.1965
    120  CA        55.0680   67.9040   31.2460 C.3   276  GLN276      0.1733
    121  C         56.4620   67.8200   30.6360 C.2   276  GLN276      0.2617
    122  O         57.3640   67.2220   31.2210 O.2   276  GLN276     -0.2715
    123  CB        55.1240   68.8990   32.4060 C.3   276  GLN276      0.0408
    124  CG        53.7940   69.4050   32.8730 C.3   276  GLN276      0.0908
    125  CD        53.8530   69.8880   34.3000 C.2   276  GLN276      0.2608
    126  OE1       54.3190   70.9930   34.5810 O.2   276  GLN276     -0.2717
    127  NE2       53.3750   69.0600   35.2170 N.am  276  GLN276     -0.0878
    128  N         56.6320   68.4450   29.4720 N.am  277  SER277     -0.1950
    129  CA        57.9500   68.5730   28.8440 C.3   277  SER277      0.1924
    130  C         58.1210   69.9240   28.1380 C.2   277  SER277      0.2314
    131  O         57.1540   70.4920   27.6100 O.2   277  SER277     -0.2863
    132  CB        58.2070   67.4150   27.8700 C.3   277  SER277      0.2116
    133  OG        57.2570   67.4090   26.8200 O.3   277  SER277     -0.2180
    134  N         60.1360   71.9970   25.0720 N.3   279  TRP279     -0.1241
    135  CA        60.8040   71.7970   23.7790 C.3   279  TRP279      0.1605
    136  C         61.2420   73.1350   23.1820 C.2   279  TRP279      0.2264
    137  O         60.6370   74.1770   23.4540 O.2   279  TRP279     -0.2867
    138  CB        59.8720   71.0830   22.8010 C.3   279  TRP279      0.0550
    139  CG        59.4980   69.6630   23.1790 C.ar  279  TRP279      0.0003
    140  CD1       58.9490   69.2400   24.3600 C.ar  279  TRP279      0.0946
    141  CD2       59.6090   68.4980   22.3510 C.ar  279  TRP279      0.0152
    142  NE1       58.7340   67.8860   24.3260 N.ar  279  TRP279     -0.2442
    143  CE2       59.1270   67.4020   23.1060 C.ar  279  TRP279      0.0810
    144  CE3       60.0800   68.2710   21.0460 C.ar  279  TRP279      0.0012
    145  CZ2       59.0930   66.0930   22.6000 C.ar  279  TRP279      0.0191
    146  CZ3       60.0490   66.9700   20.5410 C.ar  279  TRP279      0.0001
    147  CH2       59.5560   65.8960   21.3200 C.ar  279  TRP279      0.0015
    148  N         54.5040   55.5070   42.0780 N.3   344  ARG344     -0.1245
    149  CA        53.1300   56.0570   42.1240 C.3   344  ARG344      0.1563
    150  C         52.6760   56.5410   43.5160 C.2   344  ARG344      0.2260
    151  O         51.5110   56.9420   43.6960 O.2   344  ARG344     -0.2867
    152  CB        52.1230   55.0630   41.5310 C.3   344  ARG344      0.0307
    153  CG        52.1300   55.0090   40.0000 C.3   344  ARG344      0.0489
    154  CD        51.2820   53.8580   39.4790 C.3   344  ARG344      0.2205
    155  NE        50.8660   54.0350   38.0850 N.pl3 344  ARG344     -0.0865
    156  CZ        51.6120   53.7220   37.0270 C.cat 344  ARG344      0.5346
    157  NH1       52.8310   53.2070   37.1870 N.pl3 344  ARG344      0.1354
    158  NH2       51.1410   53.9230   35.8070 N.pl3 344  ARG344      0.1354
    159  N         56.4050   61.6760   39.6550 N.3   349  ARG349     -0.1245
    160  CA        56.9080   60.4000   39.1600 C.3   349  ARG349      0.1563
    161  C         57.5630   60.5820   37.7880 C.2   349  ARG349      0.2260
    162  O         57.0810   61.3470   36.9520 O.2   349  ARG349     -0.2867
    163  CB        55.7790   59.3550   39.0880 C.3   349  ARG349      0.0307
    164  CG        56.0440   58.1620   38.1540 C.3   349  ARG349      0.0489
    165  CD        54.8960   57.1610   38.1600 C.3   349  ARG349      0.2205
    166  NE        54.8730   56.3380   36.9520 N.pl3 349  ARG349     -0.0865
    167  CZ        54.0010   56.4860   35.9530 C.cat 349  ARG349      0.5346
    168  NH1       53.0710   57.4300   36.0020 N.pl3 349  ARG349      0.1354
    169  NH2       54.0570   55.6840   34.8980 N.pl3 349  ARG349      0.1354
    170  N         58.0380   58.3890   34.6430 N.3   351  PRO351     -0.2116
    171  CA        57.6730   57.1130   34.0190 C.3   351  PRO351      0.1372
    172  C         58.8710   56.5170   33.2810 C.2   351  PRO351      0.2244
    173  O         59.7120   57.2610   32.7840 O.2   351  PRO351     -0.2868
    174  CB        56.5650   57.5020   33.0230 C.3   351  PRO351      0.0268
    175  CG        56.7520   58.9470   32.7720 C.3   351  PRO351      0.0207
    176  CD        57.3680   59.5390   34.0050 C.3   351  PRO351      0.0892
    177  N         62.4290   62.1140   23.1010 N.3   358  LYS358     -0.1231
    178  CA        61.0830   62.6370   22.8480 C.3   358  LYS358      0.1693
    179  C         60.0290   62.0690   23.8050 C.2   358  LYS358      0.2592
    180  O         58.9610   62.6550   23.9810 O.2   358  LYS358     -0.2718
    181  CB        60.6740   62.3640   21.3940 C.3   358  LYS358      0.0285
    182  CG        61.6060   62.9700   20.3470 C.3   358  LYS358      0.0035
    183  CD        61.0130   62.8440   18.9500 C.3   358  LYS358      0.0206
    184  CE        61.9340   63.4430   17.8900 C.3   358  LYS358      0.1093
    185  NZ        61.2830   63.4450   16.5440 N.3   358  LYS358     -0.1314
    186  N         60.3340   60.9250   24.4110 N.am  359  ALA359     -0.1966
    187  CA        59.4440   60.2910   25.3830 C.3   359  ALA359      0.1728
    188  C         59.7190   60.7300   26.8230 C.2   359  ALA359      0.2616
    189  O         58.8910   60.4950   27.7010 O.2   359  ALA359     -0.2715
    190  CB        59.5260   58.7680   25.2710 C.3   359  ALA359      0.0334
    191  N         60.8730   61.3640   27.0610 N.am  360  LYS360     -0.1963
    192  CA        61.2510   61.8010   28.4090 C.3   360  LYS360      0.1728
    193  C         60.4100   62.9600   28.9260 C.2   360  LYS360      0.2616
    194  O         60.3350   64.0180   28.2950 O.2   360  LYS360     -0.2715
    195  CB        62.7310   62.1770   28.4940 C.3   360  LYS360      0.0311
    196  CG        63.2640   62.1090   29.9270 C.3   360  LYS360      0.0038
    197  CD        63.6700   60.6760   30.2470 C.3   360  LYS360      0.0206
    198  CE        63.0560   60.1900   31.5160 C.3   360  LYS360      0.1093
    199  NZ        63.2850   58.7190   31.6700 N.3   360  LYS360     -0.1314
    200  N         59.7900   62.7490   30.0860 N.am  361  ARG361     -0.1977
    201  CA        58.9870   63.7750   30.7550 C.3   361  ARG361      0.1597
    202  C         58.8030   63.4610   32.2430 C.2   361  ARG361      0.2287
    203  O         59.1190   62.3520   32.7010 O.2   361  ARG361     -0.2864
    204  CB        57.6290   63.9790   30.0470 C.3   361  ARG361      0.0334
    205  CG        56.5220   62.9680   30.3720 C.3   361  ARG361      0.0492
    206  CD        56.6690   61.6760   29.5960 C.3   361  ARG361      0.2205
    207  NE        55.4540   60.8600   29.6070 N.pl3 361  ARG361     -0.0865
    208  CZ        55.2700   59.7760   28.8520 C.cat 361  ARG361      0.5346
    209  NH1       56.2200   59.3770   28.0070 N.pl3 361  ARG361      0.1354
    210  NH2       54.1290   59.0940   28.9280 N.pl3 361  ARG361      0.1354
    211  N         55.9520   63.4620   35.5310 N.3   363  GLU363     -0.1245
    212  CA        54.5300   63.4290   35.8510 C.3   363  GLU363      0.1567
    213  C         54.2770   64.0580   37.2230 C.2   363  GLU363      0.2260
    214  O         54.6830   63.5150   38.2590 O.2   363  GLU363     -0.2867
    215  CB        53.9840   61.9980   35.7800 C.3   363  GLU363      0.0388
    216  CG        52.5200   61.8570   36.1870 C.3   363  GLU363      0.1160
    217  CD        52.1770   60.4480   36.6520 C.2   363  GLU363      0.3649
    218  OE1       52.9950   59.8320   37.3710 O.co2 363  GLU363     -0.2457
    219  OE2       51.0810   59.9560   36.3030 O.co2 363  GLU363     -0.2457
    220  N         51.8160   64.5090   39.9450 N.3   365  ARG365     -0.1245
    221  CA        50.6930   63.6340   40.3340 C.3   365  ARG365      0.1563
    222  C         49.7240   64.2890   41.3140 C.2   365  ARG365      0.2260
    223  O         48.6370   63.7660   41.5700 O.2   365  ARG365     -0.2867
    224  CB        51.2130   62.3330   40.9560 C.3   365  ARG365      0.0307
    225  CG        51.8440   61.3690   39.9690 C.3   365  ARG365      0.0489
    226  CD        52.2870   60.0660   40.6370 C.3   365  ARG365      0.2205
    227  NE        51.1620   59.2540   41.1020 N.pl3 365  ARG365     -0.0865
    228  CZ        50.5400   58.3310   40.3720 C.cat 365  ARG365      0.5346
    229  NH1       50.9190   58.0940   39.1160 N.pl3 365  ARG365      0.1354
    230  NH2       49.5280   57.6440   40.8970 N.pl3 365  ARG365      0.1354
@<TRIPOS>BOND
     1   185   184    1
     2   184   183    1
     3   183   182    1
     4    12    11    1
     5   182   181    1
     6   146   144   ar
     7   146   147   ar
     8   144   141   ar
     9   147   145   ar
    10   181   178    1
    11    11     9   ar
    12    11    10   ar
    13     9     7   ar
    14    10     8   ar
    15   141   143   ar
    16   141   139   ar
    17    91    90    2
    18   145   143   ar
    19    98    96   ar
    20    98    97   ar
    21   138   139    1
    22   138   135    1
    23   178   177    1
    24   178   179    1
    25    31    32    1
    26    96    94   ar
    27   143   142   ar
    28    97    95   ar
    29   139   140   ar
    30   136   137    2
    31   136   135    1
    32     7     6   ar
    33    32    33    1
    34    32    35    1
    35    34    33    2
    36    36    35    1
    37    36    37    1
    38     8     6   ar
    39    90    89    1
    40   135   134    1
    41   179   180    2
    42   179   186   am
    43    33    40   am
    44    39    37   ar
    45    94    93   ar
    46    95    93   ar
    47     6     5    1
    48    88    89    1
    49    80    77    1
    50    80    81    1
    51   142   140   ar
    52    37    38   ar
    53   186   187    1
    54    93    92    1
    55    78    77    1
    56    78    79    2
    57    77    76    1
    58    89    92    1
    59    40    41    1
    60    71    70    2
    61    82    81   ar
    62    82    84   ar
    63   190   187    1
    64    81    83   ar
    65   187   188    1
    66     5     2    1
    67    41    44    1
    68    41    42    1
    69    76    70   am
    70    70    69    1
    71    84    86   ar
    72    44    45    1
    73    83    85   ar
    74     2     1    1
    75     2     3    1
    76    42    43    2
    77   133   132    1
    78   188   191   am
    79   188   189    2
    80   191   192    1
    81    86    85   ar
    82    86    87    1
    83    45    46    1
    84    69    68    1
    85    69    72    1
    86   131   130    2
    87     3     4    2
    88   132   129    1
    89    72    73    1
    90   209   208    1
    91   130   129    1
    92   194   193    2
    93    46    47    1
    94   192   195    1
    95   192   193    1
    96   195   196    1
    97   129   128    1
    98   208   210    1
    99   208   207    2
   100    14    13    1
   101    14    15    1
   102   193   200   am
   103    47    48    1
   104    73    74    2
   105    73    75   am
   106   128   121   am
   107   206   207    1
   108   206   205    1
   109    49    50    1
   110   196   197    1
   111   204   205    1
   112   204   201    1
   113   200   201    1
   114    17    15   am
   115    17    18    1
   116    15    16    2
   117   197   198    1
   118    20    19    2
   119    62    61    2
   120   121   122    2
   121   121   120    1
   122   112   111    2
   123   201   202    1
   124    50    53    1
   125    50    51    1
   126    61    60    1
   127   113   114    1
   128   113   110    1
   129   120   119    1
   130   120   123    1
   131    53    54    1
   132    56    54   ar
   133    56    58   ar
   134    18    19    1
   135    18    21    1
   136   111   119   am
   137   111   110    1
   138    19    22   am
   139   198   199    1
   140   114   115   ar
   141   114   116   ar
   142    54    55   ar
   143   115   117   ar
   144    51    52    2
   145   110   109    1
   146   202   203    2
   147    58    57   ar
   148   123   124    1
   149   117   118   ar
   150   116   118   ar
   151    22    23    1
   152    60    59    1
   153    60    63    1
   154    27    26    1
   155    27    28    1
   156   175   174    1
   157   175   176    1
   158   173   172    2
   159    64    63    1
   160    64    65    1
   161    23    26    1
   162    23    24    1
   163    66    65   ar
   164   124   125    1
   165   174   171    1
   166    55    57   ar
   167   172   171    1
   168    65    67   ar
   169    28    29   ar
   170    28    30   ar
   171    24    25    2
   172   176   170    1
   173   171   170    1
   174   125   126    2
   175   125   127   am
   176   102   101    2
   177   169   167    1
   178   101   100    1
   179   211   212    1
   180   215   212    1
   181   215   216    1
   182   158   156    1
   183   212   213    1
   184   167   168    1
   185   167   166    2
   186   216   217    1
   187   219   217   ar
   188   103   100    1
   189   103   104    1
   190   100    99    1
   191   217   218   ar
   192   166   165    1
   193   162   161    2
   194   156   157    1
   195   156   155    2
   196   213   214    2
   197   105   104   ar
   198   105   107   ar
   199   104   106   ar
   200   161   160    1
   201   155   154    1
   202   164   165    1
   203   164   163    1
   204   107   108   ar
   205   106   108   ar
   206   163   160    1
   207   229   228    1
   208   160   159    1
   209   154   153    1
   210   220   221    1
   211   225   226    1
   212   225   224    1
   213   153   152    1
   214   221   224    1
   215   221   222    1
   216   228   230    1
   217   228   227    2
   218   226   227    1
   219   222   223    2
   220   152   149    1
   221   148   149    1
   222   149   150    1
   223   150   151    2
