@<TRIPOS>MOLECULE
tmp/2bvdA00.pdb
 197 197 0 0 0
SMALL
GASTEIGER

@<TRIPOS>ATOM
      1  N         21.5180   23.5320   13.1840 N.3     7  TRP7       -0.1241
      2  CA        22.3690   24.0710   14.2540 C.3     7  TRP7        0.1605
      3  C         21.9770   23.3050   15.5120 C.2     7  TRP7        0.2264
      4  O         20.8280   23.3970   15.9540 O.2     7  TRP7       -0.2867
      5  CB        22.1180   25.5730   14.4510 C.3     7  TRP7        0.0550
      6  CG        22.3520   26.0850   15.8540 C.ar    7  TRP7        0.0003
      7  CD1       21.3970   26.4130   16.7800 C.ar    7  TRP7        0.0946
      8  CD2       23.6180   26.3620   16.4650 C.ar    7  TRP7        0.0152
      9  NE1       21.9930   26.8630   17.9340 N.ar    7  TRP7       -0.2442
     10  CE2       23.3560   26.8460   17.7680 C.ar    7  TRP7        0.0810
     11  CE3       24.9470   26.2570   16.0360 C.ar    7  TRP7        0.0012
     12  CZ2       24.3770   27.2100   18.6560 C.ar    7  TRP7        0.0191
     13  CZ3       25.9670   26.6200   16.9180 C.ar    7  TRP7        0.0001
     14  CH2       25.6720   27.0890   18.2160 C.ar    7  TRP7        0.0015
     15  N         28.3140   24.5840   19.5870 N.3    11  GLN11      -0.1245
     16  CA        29.2690   24.4830   18.4920 C.3    11  GLN11       0.1566
     17  C         29.4400   22.9980   18.1290 C.2    11  GLN11       0.2260
     18  O         29.4350   22.1470   19.0170 O.2    11  GLN11      -0.2867
     19  CB        30.5860   25.1910   18.8450 C.3    11  GLN11       0.0367
     20  CG        30.4550   26.7210   18.9520 C.3    11  GLN11       0.0905
     21  CD        30.0890   27.4160   17.6340 C.2    11  GLN11       0.2608
     22  OE1       30.2480   26.8580   16.5380 O.2    11  GLN11      -0.2717
     23  NE2       29.6150   28.6600   17.7430 N.am   11  GLN11      -0.0878
     24  N         27.4460   29.1440   13.9800 N.3    34  PHE34      -0.1241
     25  CA        27.5680   30.6040   13.9530 C.3    34  PHE34       0.1605
     26  C         28.9290   31.0140   14.4790 C.2    34  PHE34       0.2264
     27  O         29.3940   30.4920   15.4870 O.2    34  PHE34      -0.2867
     28  CB        26.4960   31.2610   14.8280 C.3    34  PHE34       0.0534
     29  CG        25.0830   30.9900   14.3780 C.ar   34  PHE34      -0.0203
     30  CD1       24.4620   29.7770   14.6930 C.ar   34  PHE34      -0.0042
     31  CD2       24.3740   31.9420   13.6560 C.ar   34  PHE34      -0.0042
     32  CE1       23.1560   29.5140   14.2840 C.ar   34  PHE34      -0.0003
     33  CE2       23.0640   31.6910   13.2470 C.ar   34  PHE34      -0.0003
     34  CZ        22.4530   30.4780   13.5630 C.ar   34  PHE34      -0.0000
     35  N         28.9480   36.2720   11.3210 N.3    63  GLU63      -0.1245
     36  CA        28.2430   37.4300   11.8880 C.3    63  GLU63       0.1567
     37  C         29.1780   38.5790   12.2230 C.2    63  GLU63       0.2260
     38  O         29.9080   38.4990   13.2100 O.2    63  GLU63      -0.2867
     39  CB        27.5180   37.0240   13.1770 C.3    63  GLU63       0.0388
     40  CG        26.5240   35.8930   13.0130 C.3    63  GLU63       0.1160
     41  CD        25.7020   35.6910   14.2700 C.2    63  GLU63       0.3649
     42  OE1       26.2880   35.7380   15.3760 O.co2  63  GLU63      -0.2457
     43  OE2       24.4810   35.4650   14.1570 O.co2  63  GLU63      -0.2457
     44  N         29.5470   41.2410   14.0410 N.3    65  TRP65      -0.1241
     45  CA        29.2650   42.1320   15.1720 C.3    65  TRP65       0.1605
     46  C         30.3210   43.2320   15.2350 C.2    65  TRP65       0.2264
     47  O         30.0440   44.3580   15.6620 O.2    65  TRP65      -0.2867
     48  CB        29.2350   41.3460   16.4840 C.3    65  TRP65       0.0550
     49  CG        28.1740   40.3000   16.5090 C.ar   65  TRP65       0.0003
     50  CD1       28.3320   38.9770   16.2420 C.ar   65  TRP65       0.0946
     51  CD2       26.7780   40.4860   16.8180 C.ar   65  TRP65       0.0152
     52  NE1       27.1260   38.3150   16.3690 N.ar   65  TRP65      -0.2442
     53  CE2       26.1560   39.2180   16.7110 C.ar   65  TRP65       0.0810
     54  CE3       25.9950   41.5930   17.1620 C.ar   65  TRP65       0.0012
     55  CZ2       24.7930   39.0290   16.9560 C.ar   65  TRP65       0.0191
     56  CZ3       24.6330   41.4020   17.4090 C.ar   65  TRP65       0.0001
     57  CH2       24.0470   40.1330   17.2920 C.ar   65  TRP65       0.0015
     58  N         23.6610   38.1370    7.6600 N.3   101  HIS101     -0.1226
     59  CA        22.3520   37.5840    7.3010 C.3   101  HIS101      0.1752
     60  C         21.1820   38.3910    7.8560 C.2   101  HIS101      0.2595
     61  O         21.3720   39.4850    8.4040 O.2   101  HIS101     -0.2718
     62  CB        22.2540   36.1200    7.7330 C.3   101  HIS101      0.0759
     63  CG        22.1540   35.9270    9.2130 C.ar  101  HIS101      0.0818
     64  ND1       23.1240   36.3650   10.0890 N.ar  101  HIS101     -0.2268
     65  CD2       21.2020   35.3310    9.9710 C.ar  101  HIS101      0.1154
     66  CE1       22.7680   36.0590   11.3230 C.ar  101  HIS101      0.1986
     67  NE2       21.6050   35.4330   11.2790 N.ar  101  HIS101     -0.2212
     68  N         19.9750   37.8620    7.6990 N.am  102  GLU102     -0.1979
     69  CA        18.7610   38.5110    8.2110 C.3   102  GLU102      0.1602
     70  C         18.8460   40.0330    8.1240 C.2   102  GLU102      0.2287
     71  O         18.3940   40.7510    9.0240 O.2   102  GLU102     -0.2864
     72  CB        18.4540   38.0280    9.6320 C.3   102  GLU102      0.0415
     73  CG        17.9420   36.5660    9.6580 C.3   102  GLU102      0.1163
     74  CD        17.8260   35.9700   11.0660 C.2   102  GLU102      0.3649
     75  OE1       18.0170   36.6840   12.0690 O.co2 102  GLU102     -0.2457
     76  OE2       17.5280   34.7620   11.1630 O.co2 102  GLU102     -0.2457
     77  N         17.5460   43.6900   13.9490 N.3   107  TRP107     -0.1227
     78  CA        18.2280   43.2690   15.1780 C.3   107  TRP107      0.1737
     79  C         19.7390   43.1580   15.0770 C.2   107  TRP107      0.2595
     80  O         20.4250   43.1310   16.1030 O.2   107  TRP107     -0.2718
     81  CB        17.6310   41.9770   15.7380 C.3   107  TRP107      0.0564
     82  CG        17.3910   40.9050   14.7220 C.ar  107  TRP107      0.0003
     83  CD1       18.2660   39.9390   14.3190 C.ar  107  TRP107      0.0946
     84  CD2       16.1730   40.6770   13.9990 C.ar  107  TRP107      0.0152
     85  NE1       17.6730   39.1240   13.3760 N.ar  107  TRP107     -0.2442
     86  CE2       16.3900   39.5540   13.1620 C.ar  107  TRP107      0.0810
     87  CE3       14.9160   41.3160   13.9740 C.ar  107  TRP107      0.0012
     88  CZ2       15.3920   39.0440   12.3140 C.ar  107  TRP107      0.0191
     89  CZ3       13.9270   40.8170   13.1260 C.ar  107  TRP107      0.0001
     90  CH2       14.1810   39.6960   12.2980 C.ar  107  TRP107      0.0015
     91  N         20.2680   43.0820   13.8630 N.am  108  TYR108     -0.1976
     92  CA        21.7030   42.9910   13.7160 C.3   108  TYR108      0.1639
     93  C         22.3150   44.3320   13.3040 C.2   108  TYR108      0.2290
     94  O         21.7020   45.0830   12.5480 O.2   108  TYR108     -0.2864
     95  CB        22.0450   41.9390   12.6690 C.3   108  TYR108      0.0560
     96  CG        21.7600   40.5110   13.0800 C.ar  108  TYR108     -0.0198
     97  CD1       22.1980   40.0180   14.3120 C.ar  108  TYR108     -0.0009
     98  CD2       21.1130   39.6360   12.2070 C.ar  108  TYR108     -0.0009
     99  CE1       21.9710   38.7100   14.6800 C.ar  108  TYR108      0.0417
    100  CE2       20.8800   38.3100   12.5760 C.ar  108  TYR108      0.0417
    101  CZ        21.3150   37.8580   13.8060 C.ar  108  TYR108      0.1957
    102  OH        21.0930   36.5460   14.1570 O.3   108  TYR108     -0.2866
    103  N         15.2220   37.2100    6.3700 N.3   150  ASN150     -0.1240
    104  CA        14.2300   36.8430    7.3680 C.3   150  ASN150      0.1653
    105  C         12.8670   36.6940    6.6940 C.2   150  ASN150      0.2266
    106  O         12.5950   37.3430    5.6870 O.2   150  ASN150     -0.2867
    107  CB        14.1400   37.9080    8.4560 C.3   150  ASN150      0.1155
    108  CG        13.2400   37.4800    9.6100 C.2   150  ASN150      0.2627
    109  OD1       12.2000   38.1090    9.8870 O.2   150  ASN150     -0.2716
    110  ND2       13.6150   36.3850   10.2720 N.am  150  ASN150     -0.0877
    111  N         10.4160   31.4060   12.0790 N.3   178  TYR178     -0.1241
    112  CA        10.0600   30.7020   13.2950 C.3   178  TYR178      0.1605
    113  C          8.5730   30.8290   13.5690 C.2   178  TYR178      0.2264
    114  O          7.9830   31.9090   13.3890 O.2   178  TYR178     -0.2867
    115  CB        10.8500   31.3010   14.4740 C.3   178  TYR178      0.0534
    116  CG        12.3300   31.0020   14.4100 C.ar  178  TYR178     -0.0201
    117  CD1       12.8830   29.9860   15.1930 C.ar  178  TYR178     -0.0009
    118  CD2       13.1810   31.7170   13.5560 C.ar  178  TYR178     -0.0009
    119  CE1       14.2360   29.6900   15.1390 C.ar  178  TYR178      0.0417
    120  CE2       14.5620   31.4180   13.4870 C.ar  178  TYR178      0.0417
    121  CZ        15.0670   30.3980   14.2850 C.ar  178  TYR178      0.1957
    122  OH        16.4040   30.0930   14.2420 O.3   178  TYR178     -0.2866
    123  N          6.5280   31.2780   16.4750 N.3   180  TRP180     -0.1241
    124  CA         6.6920   31.6830   17.8680 C.3   180  TRP180      0.1605
    125  C          5.5600   31.1890   18.7680 C.2   180  TRP180      0.2264
    126  O          5.6480   31.3040   19.9910 O.2   180  TRP180     -0.2867
    127  CB         6.7720   33.2060   17.9430 C.3   180  TRP180      0.0550
    128  CG         7.9880   33.7460   17.2620 C.ar  180  TRP180      0.0003
    129  CD1        8.1230   34.0610   15.9360 C.ar  180  TRP180      0.0946
    130  CD2        9.2520   34.0150   17.8690 C.ar  180  TRP180      0.0152
    131  NE1        9.3940   34.5280   15.6840 N.ar  180  TRP180     -0.2442
    132  CE2       10.1110   34.5090   16.8540 C.ar  180  TRP180      0.0810
    133  CE3        9.7470   33.8950   19.1770 C.ar  180  TRP180      0.0012
    134  CZ2       11.4420   34.8780   17.1110 C.ar  180  TRP180      0.0191
    135  CZ3       11.0690   34.2730   19.4320 C.ar  180  TRP180      0.0001
    136  CH2       11.8980   34.7550   18.3990 C.ar  180  TRP180      0.0015
    137  N         17.3380   28.5850    8.8000 N.3   215  GLU215     -0.1245
    138  CA        16.9290   28.4770   10.2030 C.3   215  GLU215      0.1567
    139  C         15.4260   28.3540   10.2330 C.2   215  GLU215      0.2260
    140  O         14.7180   29.1980    9.6740 O.2   215  GLU215     -0.2867
    141  CB        17.2690   29.7280   11.0120 C.3   215  GLU215      0.0388
    142  CG        18.7370   30.1030   11.1100 C.3   215  GLU215      0.1160
    143  CD        18.9450   31.3220   11.9960 C.2   215  GLU215      0.3649
    144  OE1       18.0860   31.5780   12.8710 O.co2 215  GLU215     -0.2457
    145  OE2       19.9450   32.0380   11.8040 O.co2 215  GLU215     -0.2457
    146  N         16.7550   24.8730   13.7190 N.3   249  PHE249     -0.1241
    147  CA        17.4840   25.6010   14.7610 C.3   249  PHE249      0.1605
    148  C         17.1540   24.9310   16.0960 C.2   249  PHE249      0.2264
    149  O         16.1120   25.1980   16.6850 O.2   249  PHE249     -0.2867
    150  CB        17.0450   27.0660   14.7500 C.3   249  PHE249      0.0534
    151  CG        17.8210   27.9610   15.6840 C.ar  249  PHE249     -0.0203
    152  CD1       18.9970   28.5670   15.2720 C.ar  249  PHE249     -0.0042
    153  CD2       17.3160   28.2760   16.9430 C.ar  249  PHE249     -0.0042
    154  CE1       19.6980   29.4400   16.1150 C.ar  249  PHE249     -0.0003
    155  CE2       18.0110   29.1300   17.7930 C.ar  249  PHE249     -0.0003
    156  CZ        19.2040   29.7240   17.3730 C.ar  249  PHE249     -0.0000
    157  N         17.7240   24.6950   19.6720 N.3   251  GLU251     -0.1245
    158  CA        18.2290   25.3010   20.9090 C.3   251  GLU251      0.1567
    159  C         17.0540   25.7180   21.7880 C.2   251  GLU251      0.2260
    160  O         16.0380   26.1990   21.2820 O.2   251  GLU251     -0.2867
    161  CB        19.1200   26.5080   20.5810 C.3   251  GLU251      0.0388
    162  CG        19.9840   26.9710   21.7530 C.3   251  GLU251      0.1160
    163  CD        20.8370   28.1860   21.4280 C.2   251  GLU251      0.3649
    164  OE1       21.1960   28.3690   20.2420 O.co2 251  GLU251     -0.2457
    165  OE2       21.1610   28.9560   22.3690 O.co2 251  GLU251     -0.2457
    166  N         16.0900   28.4160   23.6730 N.3   253  LYS253     -0.1231
    167  CA        16.5540   29.7970   23.6750 C.3   253  LYS253      0.1693
    168  C         15.3830   30.7480   23.9700 C.2   253  LYS253      0.2591
    169  O         14.8870   30.7770   25.1130 O.2   253  LYS253     -0.2718
    170  CB        17.2640   30.1120   22.3520 C.3   253  LYS253      0.0285
    171  CG        18.1700   31.3270   22.3970 C.3   253  LYS253      0.0035
    172  CD        18.8390   31.5380   21.0420 C.3   253  LYS253      0.0206
    173  CE        19.7220   32.7640   21.0880 C.3   253  LYS253      0.1093
    174  NZ        20.4320   32.9860   19.8020 N.3   253  LYS253     -0.1314
    175  N         14.9080   31.4900   22.9680 N.am  254  GLU254     -0.1979
    176  CA        13.8010   32.4390   23.1820 C.3   254  GLU254      0.1602
    177  C         12.5460   31.6830   23.6060 C.2   254  GLU254      0.2287
    178  O         11.7330   32.1840   24.3960 O.2   254  GLU254     -0.2864
    179  CB        13.5190   33.2550   21.9180 C.3   254  GLU254      0.0415
    180  CG        14.6940   34.1340   21.4660 C.3   254  GLU254      0.1163
    181  CD        15.6170   33.4500   20.4680 C.2   254  GLU254      0.3649
    182  OE1       15.5880   32.2040   20.3610 O.co2 254  GLU254     -0.2457
    183  OE2       16.3790   34.1870   19.7910 O.co2 254  GLU254     -0.2457
    184  N         12.8330   25.6590   21.0100 N.3   257  TRP257     -0.1241
    185  CA        12.8270   25.3370   19.5920 C.3   257  TRP257      0.1605
    186  C         13.2110   23.8790   19.3370 C.2   257  TRP257      0.2264
    187  O         13.0190   23.3710   18.2330 O.2   257  TRP257     -0.2867
    188  CB        13.8520   26.2130   18.8590 C.3   257  TRP257      0.0550
    189  CG        13.6860   27.7020   18.9990 C.ar  257  TRP257      0.0003
    190  CD1       14.6180   28.5800   19.4940 C.ar  257  TRP257      0.0946
    191  CD2       12.5450   28.4980   18.6200 C.ar  257  TRP257      0.0152
    192  NE1       14.1370   29.8730   19.4300 N.ar  257  TRP257     -0.2442
    193  CE2       12.8690   29.8510   18.9080 C.ar  257  TRP257      0.0810
    194  CE3       11.2880   28.2070   18.0510 C.ar  257  TRP257      0.0012
    195  CZ2       11.9800   30.9090   18.6630 C.ar  257  TRP257      0.0191
    196  CZ3       10.3920   29.2680   17.8090 C.ar  257  TRP257      0.0001
    197  CH2       10.7500   30.6040   18.1150 C.ar  257  TRP257      0.0015
@<TRIPOS>BOND
     1   106   105    2
     2   103   104    1
     3   105   104    1
     4    59    58    1
     5    59    62    1
     6    59    60    1
     7   104   107    1
     8    68    60   am
     9    68    69    1
    10    62    63    1
    11    60    61    2
    12    70    69    1
    13    70    71    2
    14    69    72    1
    15   107   108    1
    16   137   138    1
    17    63    65   ar
    18    63    64   ar
    19   108   109    2
    20   108   110   am
    21    72    73    1
    22    73    74    1
    23   140   139    2
    24    65    67   ar
    25    64    66   ar
    26   138   139    1
    27   138   141    1
    28   141   142    1
    29    74    76   ar
    30    74    75   ar
    31   142   143    1
    32    67    66   ar
    33    35    36    1
    34   145   143   ar
    35    36    37    1
    36    36    39    1
    37   143   144   ar
    38   111   112    1
    39    98   100   ar
    40    98    96   ar
    41    37    38    2
    42    90    88   ar
    43    90    89   ar
    44    88    86   ar
    45    94    93    2
    46   100   101   ar
    47    95    96    1
    48    95    92    1
    49    40    39    1
    50    40    41    1
    51    96    97   ar
    52    89    87   ar
    53    86    85   ar
    54    86    84   ar
    55     1     2    1
    56    33    34   ar
    57    33    31   ar
    58   112   113    1
    59   112   115    1
    60    93    92    1
    61    85    83   ar
    62   114   113    2
    63   120   118   ar
    64   120   121   ar
    65   118   116   ar
    66    34    32   ar
    67    31    29   ar
    68    92    91    1
    69   146   147    1
    70   101   102    1
    71   101    99   ar
    72    91    79   am
    73    77    78    1
    74    25    24    1
    75    25    26    1
    76    25    28    1
    77    87    84   ar
    78    84    82   ar
    79    44    45    1
    80    43    41   ar
    81   122   121    1
    82     2     5    1
    83     2     3    1
    84    41    42   ar
    85    32    30   ar
    86   121   119   ar
    87    97    99   ar
    88    83    82   ar
    89    29    30   ar
    90    29    28    1
    91   116   115    1
    92   116   117   ar
    93     5     6    1
    94    26    27    2
    95    82    81    1
    96   150   147    1
    97   150   151    1
    98   147   148    1
    99    79    78    1
   100    79    80    2
   101   119   117   ar
   102    45    46    1
   103    45    48    1
   104    78    81    1
   105    46    47    2
   106   152   151   ar
   107   152   154   ar
   108     3     4    2
   109   131   129   ar
   110   131   132   ar
   111   151   153   ar
   112     6     8   ar
   113     6     7   ar
   114   129   128   ar
   115    11     8   ar
   116    11    13   ar
   117   148   149    2
   118   154   156   ar
   119    50    52   ar
   120    50    49   ar
   121    52    53   ar
   122     8    10   ar
   123   123   124    1
   124    48    49    1
   125    49    51   ar
   126    22    21    2
   127    53    51   ar
   128    53    55   ar
   129     7     9   ar
   130    51    54   ar
   131   132   134   ar
   132   132   130   ar
   133    13    14   ar
   134   153   155   ar
   135    55    57   ar
   136   134   136   ar
   137    54    56   ar
   138   128   130   ar
   139   128   127    1
   140    57    56   ar
   141   156   155   ar
   142    21    23   am
   143    21    20    1
   144    10     9   ar
   145    10    12   ar
   146   196   194   ar
   147   196   197   ar
   148   124   127    1
   149   124   125    1
   150   130   133   ar
   151   194   191   ar
   152   197   195   ar
   153    17    16    1
   154    17    18    2
   155    14    12   ar
   156   187   186    2
   157   136   135   ar
   158    16    19    1
   159    16    15    1
   160   191   193   ar
   161   191   189   ar
   162   195   193   ar
   163   125   126    2
   164    19    20    1
   165   188   189    1
   166   188   185    1
   167   193   192   ar
   168   189   190   ar
   169   133   135   ar
   170   186   185    1
   171   192   190   ar
   172   185   184    1
   173   157   158    1
   174   183   181   ar
   175   174   173    1
   176   164   163   ar
   177   182   181   ar
   178   181   180    1
   179   161   158    1
   180   161   162    1
   181   158   159    1
   182   172   173    1
   183   172   171    1
   184   160   159    2
   185   163   162    1
   186   163   165   ar
   187   180   179    1
   188   179   176    1
   189   170   171    1
   190   170   167    1
   191   175   176    1
   192   175   168   am
   193   176   177    1
   194   177   178    2
   195   166   167    1
   196   167   168    1
   197   168   169    2
