@<TRIPOS>MOLECULE
tmp/2bvlA00.pdb
 170 163 0 0 0
SMALL
GASTEIGER

@<TRIPOS>ATOM
      1  N          5.5610   45.4870   -1.9680 N.3   101  VAL101     -0.1231
      2  CA         6.0960   45.8680   -0.6770 C.3   101  VAL101      0.1692
      3  C          5.6430   47.2820   -0.3580 C.2   101  VAL101      0.2592
      4  O          5.7200   48.1850   -1.1930 O.2   101  VAL101     -0.2718
      5  CB         7.6520   45.7550   -0.6250 C.3   101  VAL101      0.0266
      6  CG1        8.2040   46.4000    0.6590 C.3   101  VAL101      0.0020
      7  CG2        8.1050   44.2840   -0.7360 C.3   101  VAL101      0.0020
      8  N          5.1090   47.4600    0.8380 N.am  102  TRP102     -0.1962
      9  CA         4.8230   48.7870    1.3570 C.3   102  TRP102      0.1771
     10  C          5.0420   48.7930    2.8640 C.2   102  TRP102      0.2619
     11  O          4.2020   48.3150    3.6380 O.2   102  TRP102     -0.2715
     12  CB         3.4010   49.2720    1.0180 C.3   102  TRP102      0.0590
     13  CG         3.2950   50.7230    1.4110 C.ar  102  TRP102      0.0006
     14  CD1        2.7190   51.2230    2.5390 C.ar  102  TRP102      0.0946
     15  CD2        3.9000   51.8460    0.7340 C.ar  102  TRP102      0.0152
     16  NE1        2.8890   52.5860    2.5910 N.ar  102  TRP102     -0.2442
     17  CE2        3.5960   52.9980    1.4910 C.ar  102  TRP102      0.0810
     18  CE3        4.6350   51.9850   -0.4490 C.ar  102  TRP102      0.0012
     19  CZ2        4.0050   54.2890    1.1080 C.ar  102  TRP102      0.0191
     20  CZ3        5.0690   53.2700   -0.8310 C.ar  102  TRP102      0.0001
     21  CH2        4.7390   54.4100   -0.0470 C.ar  102  TRP102      0.0015
     22  N          6.1780   49.3590    3.2600 N.am  103  ILE103     -0.1977
     23  CA         6.6230   49.3760    4.6620 C.3   103  ILE103      0.1596
     24  C          6.8150   50.8140    5.1500 C.2   103  ILE103      0.2287
     25  O          7.0400   51.7230    4.3330 O.2   103  ILE103     -0.2864
     26  CB         7.9520   48.5960    4.8180 C.3   103  ILE103      0.0276
     27  CG1        8.9930   49.1760    3.8710 C.3   103  ILE103      0.0022
     28  CG2        7.7400   47.0990    4.5200 C.3   103  ILE103      0.0022
     29  CD1       10.2990   48.4120    3.7980 C.3   103  ILE103      0.0001
     30  N          7.6490   56.4180    8.6540 N.3   139  ASN139     -0.1240
     31  CA         7.3350   57.4790    7.7080 C.3   139  ASN139      0.1653
     32  C          6.9860   58.7760    8.4090 C.2   139  ASN139      0.2266
     33  O          7.4400   59.8410    7.9940 O.2   139  ASN139     -0.2867
     34  CB         6.2210   57.0420    6.7490 C.3   139  ASN139      0.1155
     35  CG         6.7380   56.1510    5.6110 C.2   139  ASN139      0.2627
     36  OD1        7.9590   55.9990    5.4180 O.2   139  ASN139     -0.2716
     37  ND2        5.8130   55.5600    4.8490 N.am  139  ASN139     -0.0877
     38  N         13.0540   53.5060    2.9710 N.3   265  LEU265     -0.1231
     39  CA        12.1100   52.4530    2.7110 C.3   265  LEU265      0.1693
     40  C         12.3580   51.7620    1.3800 C.2   265  LEU265      0.2591
     41  O         12.0150   50.6080    1.2410 O.2   265  LEU265     -0.2718
     42  CB        10.6450   52.9680    2.7860 C.3   265  LEU265      0.0284
     43  CG        10.1180   53.4360    4.1680 C.3   265  LEU265      0.0019
     44  CD1       10.4900   52.4980    5.3240 C.3   265  LEU265      0.0001
     45  CD2       10.5760   54.8430    4.5130 C.3   265  LEU265      0.0001
     46  N         12.9430   52.4530    0.4080 N.am  266  ALA266     -0.1980
     47  CA        13.2230   51.8120   -0.8720 C.3   266  ALA266      0.1597
     48  C         14.3740   50.8280   -0.7460 C.2   266  ALA266      0.2287
     49  O         14.3580   49.7490   -1.3390 O.2   266  ALA266     -0.2864
     50  CB        13.5230   52.8360   -1.9460 C.3   266  ALA266      0.0319
     51  N         12.9620   47.8810    1.1760 N.3   269  SER269     -0.1217
     52  CA        12.1750   47.1330    0.1770 C.3   269  SER269      0.1889
     53  C         13.0550   46.3780   -0.8360 C.2   269  SER269      0.2288
     54  O         12.7080   45.3050   -1.2610 O.2   269  SER269     -0.2866
     55  CB        11.2330   48.0940   -0.5660 C.3   269  SER269      0.2089
     56  OG        10.4830   47.4520   -1.6010 O.3   269  SER269     -0.2183
     57  N         12.4170   42.4180   -1.0730 N.3   273  ARG273     -0.1245
     58  CA        11.8450   41.8740   -2.3240 C.3   273  ARG273      0.1563
     59  C         12.5630   40.6220   -2.8250 C.2   273  ARG273      0.2260
     60  O         11.9140   39.6680   -3.2310 O.2   273  ARG273     -0.2867
     61  CB        11.7480   42.9210   -3.4500 C.3   273  ARG273      0.0307
     62  CG        13.0550   43.5400   -3.9190 C.3   273  ARG273      0.0489
     63  CD        12.7890   44.6670   -4.8840 C.3   273  ARG273      0.2205
     64  NE        12.4330   45.9160   -4.2060 N.pl3 273  ARG273     -0.0865
     65  CZ        12.3700   47.1100   -4.8160 C.cat 273  ARG273      0.5346
     66  NH1       12.6140   47.2210   -6.1310 N.pl3 273  ARG273      0.1354
     67  NH2       12.0750   48.2040   -4.1170 N.pl3 273  ARG273      0.1354
     68  N          7.8540   40.0720   -8.4830 N.3   284  TYR284     -0.1241
     69  CA         7.8390   41.2920   -7.6800 C.3   284  TYR284      0.1605
     70  C          7.4880   42.5310   -8.5070 C.2   284  TYR284      0.2264
     71  O          7.9610   42.7010   -9.6260 O.2   284  TYR284     -0.2867
     72  CB         9.1570   41.5450   -6.9580 C.3   284  TYR284      0.0534
     73  CG         9.1270   42.8940   -6.2700 C.ar  284  TYR284     -0.0201
     74  CD1        8.6440   43.0210   -4.9610 C.ar  284  TYR284     -0.0009
     75  CD2        9.5520   44.0610   -6.9440 C.ar  284  TYR284     -0.0009
     76  CE1        8.5900   44.2760   -4.3250 C.ar  284  TYR284      0.0417
     77  CE2        9.4880   45.3100   -6.3270 C.ar  284  TYR284      0.0417
     78  CZ         9.0050   45.4110   -5.0130 C.ar  284  TYR284      0.1957
     79  OH         8.9620   46.6380   -4.3930 O.3   284  TYR284     -0.2866
     80  N          6.8800   46.9900   -8.0040 N.3   286  ASP286     -0.1225
     81  CA         6.7830   48.2340   -7.2390 C.3   286  ASP286      0.1805
     82  C          5.3030   48.6530   -7.3260 C.2   286  ASP286      0.2598
     83  O          4.6320   48.4150   -8.3430 O.2   286  ASP286     -0.2718
     84  CB         7.6950   49.3360   -7.7960 C.3   286  ASP286      0.1424
     85  CG         9.1090   49.3570   -7.1590 C.2   286  ASP286      0.3668
     86  OD1        9.3130   48.8080   -6.0590 O.co2 286  ASP286     -0.2456
     87  OD2       10.0450   49.9420   -7.7570 O.co2 286  ASP286     -0.2456
     88  N          4.7900   49.2650   -6.2630 N.am  287  VAL287     -0.1966
     89  CA         3.3640   49.6740   -6.2480 C.3   287  VAL287      0.1727
     90  C          2.9930   50.7670   -7.2780 C.2   287  VAL287      0.2616
     91  O          1.8160   51.0910   -7.4240 O.2   287  VAL287     -0.2715
     92  CB         2.8750   50.0800   -4.8110 C.3   287  VAL287      0.0290
     93  CG1        3.0760   48.9490   -3.8350 C.3   287  VAL287      0.0023
     94  CG2        3.5510   51.3670   -4.3320 C.3   287  VAL287      0.0023
     95  N          3.9910   51.3280   -7.9770 N.am  288  ASP288     -0.1971
     96  CA         3.7270   52.2870   -9.0540 C.3   288  ASP288      0.1709
     97  C          3.7140   51.6420  -10.4380 C.2   288  ASP288      0.2293
     98  O          3.5440   52.3230  -11.4550 O.2   288  ASP288     -0.2864
     99  CB         4.7030   53.4580   -9.0090 C.3   288  ASP288      0.1436
    100  CG         6.1550   53.0200   -9.1560 C.2   288  ASP288      0.3671
    101  OD1        6.3870   51.8400   -9.4900 O.co2 288  ASP288     -0.2456
    102  OD2        7.0420   53.8630   -8.9550 O.co2 288  ASP288     -0.2456
    103  N         16.2420   47.6500  -14.1850 N.3   383  ILE383     -0.1245
    104  CA        15.6110   48.3030  -13.0670 C.3   383  ILE383      0.1561
    105  C         14.7740   47.2680  -12.3130 C.2   383  ILE383      0.2260
    106  O         13.9890   46.5360  -12.9040 O.2   383  ILE383     -0.2867
    107  CB        14.8110   49.5410  -13.5240 C.3   383  ILE383      0.0252
    108  CG1       14.2660   50.2990  -12.3080 C.3   383  ILE383      0.0019
    109  CG2       13.7360   49.1590  -14.6040 C.3   383  ILE383      0.0019
    110  CD1       13.8070   51.6760  -12.5940 C.3   383  ILE383      0.0001
    111  N         12.2700   47.2820  -10.5060 N.3   385  GLN385     -0.1245
    112  CA        10.8590   47.6340  -10.1960 C.3   385  GLN385      0.1566
    113  C          9.8890   46.5500  -10.6310 C.2   385  GLN385      0.2260
    114  O          8.6880   46.5640  -10.2970 O.2   385  GLN385     -0.2867
    115  CB        10.4650   48.9890  -10.8240 C.3   385  GLN385      0.0367
    116  CG        10.2970   48.9860  -12.3660 C.3   385  GLN385      0.0905
    117  CD        10.4280   50.3540  -12.9790 C.2   385  GLN385      0.2608
    118  OE1       10.3720   51.3570  -12.2840 O.2   385  GLN385     -0.2717
    119  NE2       10.6050   50.4090  -14.2780 N.am  385  GLN385     -0.0878
    120  N         21.9220   58.6720   -5.0380 N.3   463  LYS463     -0.1245
    121  CA        21.2690   57.4450   -5.4840 C.3   463  LYS463      0.1561
    122  C         22.0000   56.1600   -5.0820 C.2   463  LYS463      0.2260
    123  O         21.7510   55.0880   -5.6530 O.2   463  LYS463     -0.2867
    124  CB        21.0230   57.5000   -7.0110 C.3   463  LYS463      0.0271
    125  CG        20.0150   58.6010   -7.4580 C.3   463  LYS463      0.0035
    126  CD        18.5820   58.1100   -7.4760 C.3   463  LYS463      0.0206
    127  CE        18.0450   58.0070   -8.8870 C.3   463  LYS463      0.1093
    128  NZ        16.5790   57.6480   -8.8980 N.3   463  LYS463     -0.1314
    129  N          5.1280   56.4490  -11.1070 N.3   515  GLU515     -0.1245
    130  CA         6.5650   56.1650  -11.3620 C.3   515  GLU515      0.1567
    131  C          7.3940   57.4410  -11.5820 C.2   515  GLU515      0.2260
    132  O          8.6100   57.4420  -11.3390 O.2   515  GLU515     -0.2867
    133  CB         6.7430   55.1450  -12.5060 C.3   515  GLU515      0.0388
    134  CG         8.0970   55.0910  -13.1850 C.3   515  GLU515      0.1160
    135  CD         9.1940   54.4870  -12.3390 C.2   515  GLU515      0.3649
    136  OE1        8.9400   54.1570  -11.1550 O.co2 515  GLU515     -0.2457
    137  OE2       10.3230   54.3310  -12.8550 O.co2 515  GLU515     -0.2457
    138  N          7.4190   60.1830   -9.8950 N.3   517  ALA517     -0.1231
    139  CA         7.8070   60.8260   -8.6500 C.3   517  ALA517      0.1694
    140  C          8.4250   59.8280   -7.6760 C.2   517  ALA517      0.2593
    141  O          7.7240   59.0250   -7.0950 O.2   517  ALA517     -0.2718
    142  CB         6.6020   61.5200   -8.0280 C.3   517  ALA517      0.0304
    143  N          9.7530   59.8800   -7.5260 N.am  518  SER518     -0.1938
    144  CA        10.4870   58.9740   -6.6380 C.3   518  SER518      0.2055
    145  C         10.2380   59.2660   -5.1610 C.2   518  SER518      0.2643
    146  O         10.1990   60.4350   -4.7460 O.2   518  SER518     -0.2714
    147  CB        11.9780   59.0130   -6.9290 C.3   518  SER518      0.2130
    148  OG        12.6560   58.2070   -6.0070 O.3   518  SER518     -0.2179
    149  N         10.0660   58.2060   -4.3740 N.am  519  LEU519     -0.1963
    150  CA         9.6900   58.3390   -2.9580 C.3   519  LEU519      0.1728
    151  C         10.8900   58.4060   -2.0280 C.2   519  LEU519      0.2616
    152  O         10.7280   58.7560   -0.8580 O.2   519  LEU519     -0.2715
    153  CB         8.7840   57.1860   -2.5300 C.3   519  LEU519      0.0311
    154  CG         7.2860   57.2200   -2.8700 C.3   519  LEU519      0.0022
    155  CD1        7.0920   57.8600   -4.2040 C.3   519  LEU519      0.0001
    156  CD2        6.7230   55.8080   -2.8950 C.3   519  LEU519      0.0001
    157  N         12.0780   58.0560   -2.5360 N.am  520  TRP520     -0.1974
    158  CA        13.2710   57.9740   -1.7150 C.3   520  TRP520      0.1640
    159  C         14.4140   58.8540   -2.2190 C.2   520  TRP520      0.2290
    160  O         15.4950   58.8900   -1.6140 O.2   520  TRP520     -0.2864
    161  CB        13.7550   56.5170   -1.6550 C.3   520  TRP520      0.0576
    162  CG        14.3020   56.0030   -2.9760 C.ar  520  TRP520      0.0006
    163  CD1       13.5760   55.4560   -4.0060 C.ar  520  TRP520      0.0946
    164  CD2       15.6690   55.9810   -3.3890 C.ar  520  TRP520      0.0152
    165  NE1       14.4160   55.1110   -5.0470 N.ar  520  TRP520     -0.2442
    166  CE2       15.7040   55.4170   -4.6860 C.ar  520  TRP520      0.0810
    167  CE3       16.8740   56.3780   -2.7890 C.ar  520  TRP520      0.0012
    168  CZ2       16.8740   55.2740   -5.3920 C.ar  520  TRP520      0.0191
    169  CZ3       18.0390   56.2330   -3.4910 C.ar  520  TRP520      0.0001
    170  CH2       18.0390   55.6810   -4.7860 C.ar  520  TRP520      0.0015
@<TRIPOS>BOND
     1   109   107    1
     2   119   117   am
     3   103   104    1
     4   107   104    1
     5   107   108    1
     6   134   133    1
     7   134   135    1
     8   104   105    1
     9   117   116    1
    10   117   118    2
    11   106   105    2
    12   137   135   ar
    13   110   108    1
    14   133   130    1
    15   116   115    1
    16   135   136   ar
    17   131   130    1
    18   131   132    2
    19    98    97    2
    20   130   129    1
    21   115   112    1
    22   113   114    2
    23   113   112    1
    24   111   112    1
    25    97    96    1
    26   138   139    1
    27    71    70    2
    28   101   100   ar
    29   100    99    1
    30   100   102   ar
    31    96    99    1
    32    96    95    1
    33   128   127    1
    34   127   126    1
    35   139   142    1
    36   139   140    1
    37    70    69    1
    38    68    69    1
    39    83    82    2
    40    80    81    1
    41    95    90   am
    42    84    81    1
    43    84    85    1
    44    87    85   ar
    45    69    72    1
    46   140   143   am
    47   140   141    2
    48   143   144    1
    49   126   125    1
    50   125   124    1
    51    91    90    2
    52    82    81    1
    53    82    88   am
    54    90    89    1
    55    85    86   ar
    56   124   121    1
    57    72    73    1
    58    75    77   ar
    59    75    73   ar
    60   147   144    1
    61   147   148    1
    62   144   145    1
    63    77    78   ar
    64    73    74   ar
    65    88    89    1
    66    89    92    1
    67    66    65    1
    68   123   122    2
    69   121   122    1
    70   121   120    1
    71   168   170   ar
    72   168   166   ar
    73   145   146    2
    74   145   149   am
    75   165   166   ar
    76   165   163   ar
    77    78    79    1
    78    78    76   ar
    79    74    76   ar
    80    63    64    1
    81    63    62    1
    82    65    64    2
    83    65    67    1
    84    92    94    1
    85    92    93    1
    86   170   169   ar
    87   166   164   ar
    88   149   150    1
    89   155   154    1
    90   163   162   ar
    91    62    61    1
    92   169   167   ar
    93    61    58    1
    94   164   162   ar
    95   164   167   ar
    96    60    59    2
    97   162   161    1
    98   150   153    1
    99   150   151    1
   100   156   154    1
   101   154   153    1
   102    59    58    1
   103   157   151   am
   104   157   158    1
   105    58    57    1
   106   159   158    1
   107   159   160    2
   108   151   152    2
   109     1     2    1
   110    50    47    1
   111   158   161    1
   112    56    55    1
   113    49    48    2
   114    54    53    2
   115     4     3    2
   116    47    48    1
   117    47    46    1
   118    53    52    1
   119    20    18   ar
   120    20    21   ar
   121     7     5    1
   122     2     5    1
   123     2     3    1
   124     5     6    1
   125    55    52    1
   126    18    15   ar
   127     3     8   am
   128    21    19   ar
   129    52    51    1
   130    46    40   am
   131    15    13   ar
   132    15    17   ar
   133     8     9    1
   134    12     9    1
   135    12    13    1
   136    19    17   ar
   137    41    40    2
   138     9    10    1
   139    40    39    1
   140    13    14   ar
   141    17    16   ar
   142    14    16   ar
   143    39    42    1
   144    39    38    1
   145    42    43    1
   146    10    22   am
   147    10    11    2
   148    22    23    1
   149    29    27    1
   150    27    26    1
   151    43    45    1
   152    43    44    1
   153    25    24    2
   154    28    26    1
   155    23    26    1
   156    23    24    1
   157    37    35   am
   158    36    35    2
   159    35    34    1
   160    34    31    1
   161    31    32    1
   162    31    30    1
   163    33    32    2
