@<TRIPOS>MOLECULE
tmp/2bvlA01.pdb
 115 108 0 0 0
SMALL
GASTEIGER

@<TRIPOS>ATOM
      1  N         12.9430   52.4530    0.4080 N.3   266  ALA266     -0.1245
      2  CA        13.2230   51.8120   -0.8720 C.3   266  ALA266      0.1562
      3  C         14.3740   50.8280   -0.7460 C.2   266  ALA266      0.2260
      4  O         14.3580   49.7490   -1.3390 O.2   266  ALA266     -0.2867
      5  CB        13.5230   52.8360   -1.9460 C.3   266  ALA266      0.0290
      6  N         14.1890   46.9430   -1.2310 N.3   270  ASP270     -0.1239
      7  CA        15.1470   46.2110   -2.0890 C.3   270  ASP270      0.1674
      8  C         15.6390   44.9520   -1.4290 C.2   270  ASP270      0.2266
      9  O         15.8790   43.9470   -2.0920 O.2   270  ASP270     -0.2867
     10  CB        16.3780   47.0590   -2.4020 C.3   270  ASP270      0.1410
     11  CG        16.1340   48.0900   -3.4590 C.2   270  ASP270      0.3668
     12  OD1       15.0190   48.1990   -4.0300 O.co2 270  ASP270     -0.2456
     13  OD2       17.0740   48.8220   -3.7020 O.co2 270  ASP270     -0.2456
     14  N         12.4170   42.4180   -1.0730 N.3   273  ARG273     -0.1245
     15  CA        11.8450   41.8740   -2.3240 C.3   273  ARG273      0.1563
     16  C         12.5630   40.6220   -2.8250 C.2   273  ARG273      0.2260
     17  O         11.9140   39.6680   -3.2310 O.2   273  ARG273     -0.2867
     18  CB        11.7480   42.9210   -3.4500 C.3   273  ARG273      0.0307
     19  CG        13.0550   43.5400   -3.9190 C.3   273  ARG273      0.0489
     20  CD        12.7890   44.6670   -4.8840 C.3   273  ARG273      0.2205
     21  NE        12.4330   45.9160   -4.2060 N.pl3 273  ARG273     -0.0865
     22  CZ        12.3700   47.1100   -4.8160 C.cat 273  ARG273      0.5346
     23  NH1       12.6140   47.2210   -6.1310 N.pl3 273  ARG273      0.1354
     24  NH2       12.0750   48.2040   -4.1170 N.pl3 273  ARG273      0.1354
     25  N          6.8800   46.9900   -8.0040 N.3   286  ASP286     -0.1239
     26  CA         6.7830   48.2340   -7.2390 C.3   286  ASP286      0.1674
     27  C          5.3030   48.6530   -7.3260 C.2   286  ASP286      0.2266
     28  O          4.6320   48.4150   -8.3430 O.2   286  ASP286     -0.2867
     29  CB         7.6950   49.3360   -7.7960 C.3   286  ASP286      0.1410
     30  CG         9.1090   49.3570   -7.1590 C.2   286  ASP286      0.3668
     31  OD1        9.3130   48.8080   -6.0590 O.co2 286  ASP286     -0.2456
     32  OD2       10.0450   49.9420   -7.7570 O.co2 286  ASP286     -0.2456
     33  N         16.2420   47.6500  -14.1850 N.3   383  ILE383     -0.1231
     34  CA        15.6110   48.3030  -13.0670 C.3   383  ILE383      0.1692
     35  C         14.7740   47.2680  -12.3130 C.2   383  ILE383      0.2592
     36  O         13.9890   46.5360  -12.9040 O.2   383  ILE383     -0.2718
     37  CB        14.8110   49.5410  -13.5240 C.3   383  ILE383      0.0266
     38  CG1       14.2660   50.2990  -12.3080 C.3   383  ILE383      0.0019
     39  CG2       13.7360   49.1590  -14.6040 C.3   383  ILE383      0.0020
     40  CD1       13.8070   51.6760  -12.5940 C.3   383  ILE383      0.0001
     41  N         14.9980   47.1660  -11.0060 N.am  384  ASN384     -0.1960
     42  CA        14.4020   46.1090  -10.2280 C.3   384  ASN384      0.1819
     43  C         13.0030   46.4480   -9.7540 C.2   384  ASN384      0.2621
     44  O         12.6020   45.9420   -8.7140 O.2   384  ASN384     -0.2715
     45  CB        15.3020   45.7350   -9.0370 C.3   384  ASN384      0.1195
     46  CG        15.4690   46.8870   -8.0230 C.2   384  ASN384      0.2630
     47  OD1       15.3080   48.0560   -8.3730 O.2   384  ASN384     -0.2716
     48  ND2       15.7820   46.5490   -6.7720 N.am  384  ASN384     -0.0877
     49  N         12.2700   47.2820  -10.5060 N.am  385  GLN385     -0.1977
     50  CA        10.8590   47.6340  -10.1960 C.3   385  GLN385      0.1601
     51  C          9.8890   46.5500  -10.6310 C.2   385  GLN385      0.2287
     52  O          8.6880   46.5640  -10.2970 O.2   385  GLN385     -0.2864
     53  CB        10.4650   48.9890  -10.8240 C.3   385  GLN385      0.0394
     54  CG        10.2970   48.9860  -12.3660 C.3   385  GLN385      0.0908
     55  CD        10.4280   50.3540  -12.9790 C.2   385  GLN385      0.2608
     56  OE1       10.3720   51.3570  -12.2840 O.2   385  GLN385     -0.2717
     57  NE2       10.6050   50.4090  -14.2780 N.am  385  GLN385     -0.0878
     58  N         21.9220   58.6720   -5.0380 N.3   463  LYS463     -0.1245
     59  CA        21.2690   57.4450   -5.4840 C.3   463  LYS463      0.1561
     60  C         22.0000   56.1600   -5.0820 C.2   463  LYS463      0.2260
     61  O         21.7510   55.0880   -5.6530 O.2   463  LYS463     -0.2867
     62  CB        21.0230   57.5000   -7.0110 C.3   463  LYS463      0.0271
     63  CG        20.0150   58.6010   -7.4580 C.3   463  LYS463      0.0035
     64  CD        18.5820   58.1100   -7.4760 C.3   463  LYS463      0.0206
     65  CE        18.0450   58.0070   -8.8870 C.3   463  LYS463      0.1093
     66  NZ        16.5790   57.6480   -8.8980 N.3   463  LYS463     -0.1314
     67  N         21.7310   53.8540   -3.0650 N.3   465  THR465     -0.1203
     68  CA        20.9460   52.6520   -2.9040 C.3   465  THR465      0.1994
     69  C         21.0970   51.7590   -4.1410 C.2   465  THR465      0.2617
     70  O         21.2460   50.5230   -4.0400 O.2   465  THR465     -0.2717
     71  CB        19.4900   53.0590   -2.6700 C.3   465  THR465      0.1784
     72  OG1       19.4550   54.0270   -1.6040 O.3   465  THR465     -0.2211
     73  CG2       18.6030   51.8590   -2.3460 C.3   465  THR465      0.0376
     74  N         21.1240   52.4040   -5.3070 N.am  466  ILE466     -0.1979
     75  CA        21.1690   51.6930   -6.5630 C.3   466  ILE466      0.1595
     76  C         22.3910   50.7540   -6.6160 C.2   466  ILE466      0.2287
     77  O         22.3350   49.6740   -7.1990 O.2   466  ILE466     -0.2864
     78  CB        21.1630   52.6950   -7.7030 C.3   466  ILE466      0.0276
     79  CG1       19.7300   53.1580   -7.9730 C.3   466  ILE466      0.0022
     80  CG2       21.8500   52.1290   -8.9400 C.3   466  ILE466      0.0022
     81  CD1       19.6560   54.3760   -8.9050 C.3   466  ILE466      0.0001
     82  N         20.1310   47.7830   -4.9130 N.3   470  GLY470     -0.1210
     83  CA        19.3620   47.9860   -6.1350 C.3   470  GLY470      0.1940
     84  C         20.0080   47.4300   -7.3990 C.2   470  GLY470      0.2453
     85  O         20.7850   46.4680   -7.3300 O.2   470  GLY470     -0.2732
     86  N         19.6460   47.9890   -8.5730 N.am  471  PRO471     -0.2728
     87  CA        20.0210   47.4230   -9.8640 C.3   471  PRO471      0.1401
     88  C         21.4760   46.9310  -10.0240 C.2   471  PRO471      0.2269
     89  O         21.6960   45.9090  -10.6780 O.2   471  PRO471     -0.2865
     90  CB        19.6470   48.5540  -10.8490 C.3   471  PRO471      0.0296
     91  CG        18.3880   49.1060  -10.2180 C.3   471  PRO471      0.0237
     92  CD        18.7530   49.1590   -8.7520 C.3   471  PRO471      0.0939
     93  N          5.1280   56.4490  -11.1070 N.3   515  GLU515     -0.1245
     94  CA         6.5650   56.1650  -11.3620 C.3   515  GLU515      0.1567
     95  C          7.3940   57.4410  -11.5820 C.2   515  GLU515      0.2260
     96  O          8.6100   57.4420  -11.3390 O.2   515  GLU515     -0.2867
     97  CB         6.7430   55.1450  -12.5060 C.3   515  GLU515      0.0388
     98  CG         8.0970   55.0910  -13.1850 C.3   515  GLU515      0.1160
     99  CD         9.1940   54.4870  -12.3390 C.2   515  GLU515      0.3649
    100  OE1        8.9400   54.1570  -11.1550 O.co2 515  GLU515     -0.2457
    101  OE2       10.3230   54.3310  -12.8550 O.co2 515  GLU515     -0.2457
    102  N         12.0780   58.0560   -2.5360 N.3   520  TRP520     -0.1241
    103  CA        13.2710   57.9740   -1.7150 C.3   520  TRP520      0.1605
    104  C         14.4140   58.8540   -2.2190 C.2   520  TRP520      0.2264
    105  O         15.4950   58.8900   -1.6140 O.2   520  TRP520     -0.2867
    106  CB        13.7550   56.5170   -1.6550 C.3   520  TRP520      0.0550
    107  CG        14.3020   56.0030   -2.9760 C.ar  520  TRP520      0.0003
    108  CD1       13.5760   55.4560   -4.0060 C.ar  520  TRP520      0.0946
    109  CD2       15.6690   55.9810   -3.3890 C.ar  520  TRP520      0.0152
    110  NE1       14.4160   55.1110   -5.0470 N.ar  520  TRP520     -0.2442
    111  CE2       15.7040   55.4170   -4.6860 C.ar  520  TRP520      0.0810
    112  CE3       16.8740   56.3780   -2.7890 C.ar  520  TRP520      0.0012
    113  CZ2       16.8740   55.2740   -5.3920 C.ar  520  TRP520      0.0191
    114  CZ3       18.0390   56.2330   -3.4910 C.ar  520  TRP520      0.0001
    115  CH2       18.0390   55.6810   -4.7860 C.ar  520  TRP520      0.0015
@<TRIPOS>BOND
     1    39    37    1
     2    57    55   am
     3    33    34    1
     4    37    34    1
     5    37    38    1
     6    98    97    1
     7    98    99    1
     8    34    35    1
     9    55    54    1
    10    55    56    2
    11    36    35    2
    12   101    99   ar
    13    40    38    1
    14    97    94    1
    15    54    53    1
    16    99   100   ar
    17    35    41   am
    18    95    94    1
    19    95    96    2
    20    94    93    1
    21    41    42    1
    22    90    91    1
    23    90    87    1
    24    53    50    1
    25    89    88    2
    26    51    52    2
    27    51    50    1
    28    49    50    1
    29    49    43   am
    30    42    43    1
    31    42    45    1
    32    91    92    1
    33    88    87    1
    34    87    86    1
    35    43    44    2
    36    45    46    1
    37    80    78    1
    38    81    79    1
    39    66    65    1
    40    65    64    1
    41    92    86    1
    42    86    84   am
    43    47    46    2
    44    28    27    2
    45    46    48   am
    46    25    26    1
    47    79    78    1
    48    29    26    1
    49    29    30    1
    50    32    30   ar
    51    78    75    1
    52    64    63    1
    53    63    62    1
    54    84    85    2
    55    84    83    1
    56    27    26    1
    57    77    76    2
    58    30    31   ar
    59    62    59    1
    60    76    75    1
    61    75    74    1
    62    83    82    1
    63    23    22    1
    64    61    60    2
    65    59    60    1
    66    59    58    1
    67   113   115   ar
    68   113   111   ar
    69    74    69   am
    70   110   111   ar
    71   110   108   ar
    72    20    21    1
    73    20    19    1
    74    22    21    2
    75    22    24    1
    76   115   114   ar
    77   111   109   ar
    78    69    70    2
    79    69    68    1
    80    12    11   ar
    81   108   107   ar
    82    19    18    1
    83    13    11   ar
    84   114   112   ar
    85    11    10    1
    86    18    15    1
    87   109   107   ar
    88   109   112   ar
    89    17    16    2
    90    67    68    1
    91   107   106    1
    92    68    71    1
    93    16    15    1
    94    71    73    1
    95    71    72    1
    96   102   103    1
    97    10     7    1
    98    15    14    1
    99   104   103    1
   100   104   105    2
   101     9     8    2
   102     7     8    1
   103     7     6    1
   104     5     2    1
   105   103   106    1
   106     4     3    2
   107     2     3    1
   108     2     1    1
