@<TRIPOS>MOLECULE
tmp/2bvnA01.pdb
 234 224 0 0 0
SMALL
GASTEIGER

@<TRIPOS>ATOM
      1  N         31.3820   70.9020   55.7650 N.3    71  ILE71      -0.1231
      2  CA        31.1870   72.3590   55.7030 C.3    71  ILE71       0.1692
      3  C         29.9990   72.8740   56.5110 C.2    71  ILE71       0.2592
      4  O         30.1540   73.7790   57.3240 O.2    71  ILE71      -0.2718
      5  CB        31.0430   72.8340   54.2520 C.3    71  ILE71       0.0266
      6  CG1       32.3750   72.6770   53.5400 C.3    71  ILE71       0.0019
      7  CG2       30.5870   74.3050   54.2230 C.3    71  ILE71       0.0020
      8  CD1       32.2920   72.9300   52.0590 C.3    71  ILE71       0.0001
      9  N         28.8160   72.3240   56.2620 N.am   72  THR72      -0.1953
     10  CA        27.6320   72.7660   56.9910 C.3    72  THR72       0.1897
     11  C         27.8130   72.4840   58.4820 C.2    72  THR72       0.2313
     12  O         27.1790   73.1200   59.3270 O.2    72  THR72      -0.2863
     13  CB        26.3500   72.0550   56.4640 C.3    72  THR72       0.1794
     14  OG1       25.8670   72.7430   55.3040 O.3    72  THR72      -0.2208
     15  CG2       25.2660   72.0380   57.5290 C.3    72  THR72       0.0378
     16  N         30.7730   74.9680   59.9920 N.3    75  ALA75      -0.1245
     17  CA        30.1630   76.2890   60.0860 C.3    75  ALA75       0.1562
     18  C         29.3420   76.4200   61.3630 C.2    75  ALA75       0.2260
     19  O         29.0540   77.5360   61.8090 O.2    75  ALA75      -0.2867
     20  CB        29.2730   76.5480   58.8670 C.3    75  ALA75       0.0290
     21  N         45.8630   69.7980   56.0120 N.3    95  ARG95      -0.1231
     22  CA        45.9020   71.1300   55.4150 C.3    95  ARG95       0.1694
     23  C         44.5180   71.6080   54.9730 C.2    95  ARG95       0.2591
     24  O         44.0660   72.6860   55.3660 O.2    95  ARG95      -0.2718
     25  CB        46.8240   71.1350   54.1950 C.3    95  ARG95       0.0321
     26  CG        48.1540   71.8190   54.3990 C.3    95  ARG95       0.0489
     27  CD        48.9330   71.9210   53.0880 C.3    95  ARG95       0.2205
     28  NE        50.3130   72.3350   53.3260 N.pl3  95  ARG95      -0.0865
     29  CZ        50.6810   73.5630   53.6790 C.cat  95  ARG95       0.5346
     30  NH1       49.7760   74.5210   53.8310 N.pl3  95  ARG95       0.1354
     31  NH2       51.9610   73.8310   53.9020 N.pl3  95  ARG95       0.1354
     32  N         43.8490   70.8010   54.1550 N.am   96  GLU96      -0.1979
     33  CA        42.5330   71.1670   53.6510 C.3    96  GLU96       0.1602
     34  C         41.5020   71.4390   54.7250 C.2    96  GLU96       0.2287
     35  O         40.7570   72.4090   54.6250 O.2    96  GLU96      -0.2864
     36  CB        42.0010   70.1000   52.6850 C.3    96  GLU96       0.0415
     37  CG        42.6820   70.1140   51.3160 C.3    96  GLU96       0.1163
     38  CD        42.5610   71.4620   50.5980 C.2    96  GLU96       0.3649
     39  OE1       41.4150   71.9240   50.3830 O.co2  96  GLU96      -0.2457
     40  OE2       43.6110   72.0560   50.2490 O.co2  96  GLU96      -0.2457
     41  N         42.2750   74.6780   56.3570 N.3    99  LEU99      -0.1245
     42  CA        41.9110   75.7230   55.4010 C.3    99  LEU99       0.1561
     43  C         40.4030   75.9580   55.4130 C.2    99  LEU99       0.2260
     44  O         39.9500   77.0960   55.5470 O.2    99  LEU99      -0.2867
     45  CB        42.3550   75.3410   53.9840 C.3    99  LEU99       0.0270
     46  CG        41.8900   76.2710   52.8520 C.3    99  LEU99       0.0019
     47  CD1       42.3830   77.6910   53.0980 C.3    99  LEU99       0.0001
     48  CD2       42.4180   75.7540   51.5210 C.3    99  LEU99       0.0001
     49  N         39.3690   77.6890   58.5570 N.3   102  ARG102     -0.1231
     50  CA        39.6050   79.1270   58.5360 C.3   102  ARG102      0.1694
     51  C         38.5810   79.8510   57.6580 C.2   102  ARG102      0.2592
     52  O         38.0790   80.9030   58.0300 O.2   102  ARG102     -0.2718
     53  CB        41.0160   79.4310   58.0250 C.3   102  ARG102      0.0321
     54  CG        41.3390   80.9210   57.9990 C.3   102  ARG102      0.0489
     55  CD        41.3400   81.5050   59.4040 C.3   102  ARG102      0.2205
     56  NE        41.3870   82.9630   59.4050 N.pl3 102  ARG102     -0.0865
     57  CZ        40.3490   83.7560   59.1420 C.cat 102  ARG102      0.5346
     58  NH1       39.1570   83.2380   58.8520 N.pl3 102  ARG102      0.1354
     59  NH2       40.5030   85.0770   59.1700 N.pl3 102  ARG102      0.1354
     60  N         38.2640   79.2880   56.4970 N.am  103  GLN103     -0.1966
     61  CA        37.3140   79.9220   55.5870 C.3   103  GLN103      0.1733
     62  C         35.9290   80.0710   56.1730 C.2   103  GLN103      0.2616
     63  O         35.2960   81.1080   55.9820 O.2   103  GLN103     -0.2715
     64  CB        37.2150   79.1450   54.2630 C.3   103  GLN103      0.0408
     65  CG        38.5450   78.9800   53.5480 C.3   103  GLN103      0.0908
     66  CD        38.4270   78.1890   52.2500 C.2   103  GLN103      0.2608
     67  OE1       37.6410   77.2410   52.1540 O.2   103  GLN103     -0.2717
     68  NE2       39.2260   78.5660   51.2490 N.am  103  GLN103     -0.0878
     69  N         35.4450   79.0490   56.8770 N.am  104  VAL104     -0.1963
     70  CA        34.1110   79.1340   57.4590 C.3   104  VAL104      0.1727
     71  C         34.1080   79.8870   58.7870 C.2   104  VAL104      0.2616
     72  O         33.0430   80.2220   59.3130 O.2   104  VAL104     -0.2715
     73  CB        33.4840   77.7270   57.6640 C.3   104  VAL104      0.0290
     74  CG1       33.3980   77.0090   56.3270 C.3   104  VAL104      0.0023
     75  CG2       34.2970   76.9170   58.6650 C.3   104  VAL104      0.0023
     76  N         35.2990   80.1480   59.3180 N.am  105  GLY105     -0.1955
     77  CA        35.4230   80.8710   60.5740 C.3   105  GLY105      0.1869
     78  C         35.3720   80.0780   61.8780 C.2   105  GLY105      0.2309
     79  O         34.9240   80.6170   62.8820 O.2   105  GLY105     -0.2863
     80  N         50.2000   79.2350   59.4860 N.3   138  GLN138     -0.1231
     81  CA        50.1160   79.5770   58.0800 C.3   138  GLN138      0.1698
     82  C         48.6790   79.7860   57.6140 C.2   138  GLN138      0.2592
     83  O         48.4410   80.3910   56.5680 O.2   138  GLN138     -0.2718
     84  CB        50.7800   78.5030   57.2390 C.3   138  GLN138      0.0381
     85  CG        50.5680   78.6970   55.7580 C.3   138  GLN138      0.0905
     86  CD        51.7770   78.3060   54.9580 C.2   138  GLN138      0.2608
     87  OE1       52.4440   77.3140   55.2630 O.2   138  GLN138     -0.2717
     88  NE2       52.0680   79.0750   53.9150 N.am  138  GLN138     -0.0878
     89  N         47.7200   79.2940   58.3870 N.am  139  TYR139     -0.1962
     90  CA        46.3170   79.4560   58.0230 C.3   139  TYR139      0.1771
     91  C         45.6300   80.4480   58.9380 C.2   139  TYR139      0.2619
     92  O         44.3990   80.4910   59.0410 O.2   139  TYR139     -0.2715
     93  CB        45.6120   78.1030   58.0300 C.3   139  TYR139      0.0574
     94  CG        45.9980   77.2820   56.8280 C.ar  139  TYR139     -0.0198
     95  CD1       45.3060   77.4120   55.6240 C.ar  139  TYR139     -0.0009
     96  CD2       47.1140   76.4510   56.8610 C.ar  139  TYR139     -0.0009
     97  CE1       45.7170   76.7410   54.4830 C.ar  139  TYR139      0.0417
     98  CE2       47.5410   75.7750   55.7210 C.ar  139  TYR139      0.0417
     99  CZ        46.8380   75.9260   54.5330 C.ar  139  TYR139      0.1957
    100  OH        47.2620   75.2750   53.3930 O.3   139  TYR139     -0.2866
    101  N         46.4540   81.2520   59.6020 N.am  140  ASP140     -0.1971
    102  CA        45.9570   82.2970   60.4720 C.3   140  ASP140      0.1709
    103  C         45.2720   81.8190   61.7700 C.2   140  ASP140      0.2293
    104  O         44.2990   82.4160   62.2410 O.2   140  ASP140     -0.2864
    105  CB        45.0450   83.2100   59.6390 C.3   140  ASP140      0.1436
    106  CG        44.7210   84.5010   60.3350 C.2   140  ASP140      0.3671
    107  OD1       45.6460   85.0990   60.9370 O.co2 140  ASP140     -0.2456
    108  OD2       43.5410   84.9140   60.2710 O.co2 140  ASP140     -0.2456
    109  N         32.7860   88.9010   49.3640 N.3   288  TYR288     -0.1241
    110  CA        34.2300   88.9630   49.2270 C.3   288  TYR288      0.1605
    111  C         34.6440   87.7000   48.4910 C.2   288  TYR288      0.2264
    112  O         34.2930   86.5900   48.9030 O.2   288  TYR288     -0.2867
    113  CB        34.9180   89.0140   50.5900 C.3   288  TYR288      0.0534
    114  CG        36.4020   88.7630   50.5020 C.ar  288  TYR288     -0.0201
    115  CD1       36.9510   87.5510   50.9230 C.ar  288  TYR288     -0.0009
    116  CD2       37.2550   89.7170   49.9510 C.ar  288  TYR288     -0.0009
    117  CE1       38.3140   87.2940   50.7990 C.ar  288  TYR288      0.0417
    118  CE2       38.6200   89.4700   49.8150 C.ar  288  TYR288      0.0417
    119  CZ        39.1420   88.2570   50.2430 C.ar  288  TYR288      0.1957
    120  OH        40.4880   88.0100   50.1100 O.3   288  TYR288     -0.2866
    121  N         37.3740   85.1810   47.6390 N.3   290  LEU290     -0.1245
    122  CA        38.6680   84.6960   48.1130 C.3   290  LEU290      0.1561
    123  C         39.7570   84.8560   47.0570 C.2   290  LEU290      0.2260
    124  O         39.5040   84.7110   45.8590 O.2   290  LEU290     -0.2867
    125  CB        38.5860   83.2060   48.4870 C.3   290  LEU290      0.0270
    126  CG        37.5630   82.6340   49.4890 C.3   290  LEU290      0.0019
    127  CD1       38.3240   81.9860   50.6270 C.3   290  LEU290      0.0001
    128  CD2       36.6110   83.7070   50.0140 C.3   290  LEU290      0.0001
    129  N         43.6370   83.7000   45.5390 N.3   292  LYS292     -0.1231
    130  CA        44.2920   82.4070   45.3720 C.3   292  LYS292      0.1693
    131  C         45.0460   82.1430   46.6700 C.2   292  LYS292      0.2592
    132  O         45.2080   81.0000   47.0990 O.2   292  LYS292     -0.2718
    133  CB        45.2750   82.4620   44.1980 C.3   292  LYS292      0.0285
    134  CG        46.1650   81.2350   44.0660 C.3   292  LYS292      0.0035
    135  CD        46.9980   81.3040   42.7920 C.3   292  LYS292      0.0206
    136  CE        48.1170   80.2720   42.7900 C.3   292  LYS292      0.1093
    137  NZ        49.1410   80.5360   43.8450 N.3   292  LYS292     -0.1314
    138  N         45.5040   83.2380   47.2720 N.am  293  ASP293     -0.1960
    139  CA        46.2440   83.2470   48.5290 C.3   293  ASP293      0.1840
    140  C         45.4790   82.5130   49.6140 C.2   293  ASP293      0.2622
    141  O         46.0680   81.8920   50.4940 O.2   293  ASP293     -0.2715
    142  CB        46.4380   84.6910   48.9850 C.3   293  ASP293      0.1450
    143  CG        47.8610   85.1510   48.8600 C.2   293  ASP293      0.3671
    144  OD1       48.5750   84.6230   47.9800 O.co2 293  ASP293     -0.2456
    145  OD2       48.2570   86.0500   49.6360 O.co2 293  ASP293     -0.2456
    146  N         44.1570   82.6030   49.5310 N.am  294  GLU294     -0.1963
    147  CA        43.2530   82.0110   50.5040 C.3   294  GLU294      0.1733
    148  C         42.5140   80.7580   50.0510 C.2   294  GLU294      0.2616
    149  O         41.5580   80.3390   50.7000 O.2   294  GLU294     -0.2715
    150  CB        42.2510   83.0800   50.9230 C.3   294  GLU294      0.0429
    151  CG        42.9310   84.2730   51.5740 C.3   294  GLU294      0.1163
    152  CD        42.1030   85.5420   51.5210 C.2   294  GLU294      0.3649
    153  OE1       42.3970   86.4570   52.3160 O.co2 294  GLU294     -0.2457
    154  OE2       41.1760   85.6370   50.6830 O.co2 294  GLU294     -0.2457
    155  N         42.9500   80.1670   48.9410 N.am  295  GLY295     -0.1955
    156  CA        42.3160   78.9580   48.4420 C.3   295  GLY295      0.1869
    157  C         41.1250   79.1760   47.5270 C.2   295  GLY295      0.2309
    158  O         40.3490   78.2490   47.2930 O.2   295  GLY295     -0.2863
    159  N         41.5090   81.0330   40.7690 N.3   298  HIS298     -0.1241
    160  CA        42.7530   81.6030   40.2570 C.3   298  HIS298      0.1621
    161  C         42.4170   82.5940   39.1360 C.2   298  HIS298      0.2264
    162  O         43.2550   83.3990   38.7330 O.2   298  HIS298     -0.2867
    163  CB        43.6640   80.5040   39.6980 C.3   298  HIS298      0.0745
    164  CG        44.1210   79.5070   40.7190 C.ar  298  HIS298      0.0817
    165  ND1       44.8850   78.4060   40.3940 N.ar  298  HIS298     -0.2268
    166  CD2       43.9250   79.4450   42.0580 C.ar  298  HIS298      0.1154
    167  CE1       45.1410   77.7100   41.4870 C.ar  298  HIS298      0.1986
    168  NE2       44.5700   78.3200   42.5110 N.ar  298  HIS298     -0.2212
    169  N         25.5430   78.5760   50.0050 N.3   310  TYR310     -0.1241
    170  CA        25.3050   77.8700   51.2630 C.3   310  TYR310      0.1605
    171  C         24.5980   78.7070   52.3220 C.2   310  TYR310      0.2264
    172  O         25.1630   79.6650   52.8480 O.2   310  TYR310     -0.2867
    173  CB        26.6380   77.3570   51.8220 C.3   310  TYR310      0.0534
    174  CG        27.1970   76.1660   51.0640 C.ar  310  TYR310     -0.0201
    175  CD1       27.2910   74.9090   51.6720 C.ar  310  TYR310     -0.0009
    176  CD2       27.5970   76.2840   49.7290 C.ar  310  TYR310     -0.0009
    177  CE1       27.7680   73.8020   50.9750 C.ar  310  TYR310      0.0417
    178  CE2       28.0750   75.1790   49.0160 C.ar  310  TYR310      0.0417
    179  CZ        28.1590   73.9430   49.6460 C.ar  310  TYR310      0.1957
    180  OH        28.6340   72.8480   48.9580 O.3   310  TYR310     -0.2866
    181  N         22.8230   78.3090   55.9240 N.3   312  ARG312     -0.1245
    182  CA        22.5710   77.4680   57.0820 C.3   312  ARG312      0.1563
    183  C         22.8280   75.9780   56.8300 C.2   312  ARG312      0.2260
    184  O         23.9780   75.5770   56.6170 O.2   312  ARG312     -0.2867
    185  CB        21.1410   77.6940   57.5810 C.3   312  ARG312      0.0307
    186  CG        20.9530   79.0540   58.2330 C.3   312  ARG312      0.0489
    187  CD        19.5240   79.2870   58.6930 C.3   312  ARG312      0.2205
    188  NE        19.4320   80.5000   59.5020 N.pl3 312  ARG312     -0.0865
    189  CZ        18.8760   81.6440   59.1080 C.cat 312  ARG312      0.5346
    190  NH1       18.3380   81.7560   57.8970 N.pl3 312  ARG312      0.1354
    191  NH2       18.8760   82.6870   59.9290 N.pl3 312  ARG312      0.1354
    192  N         24.4650   85.4650   56.8580 N.3   352  ARG352     -0.1231
    193  CA        25.7500   85.1060   56.2650 C.3   352  ARG352      0.1694
    194  C         25.6010   83.8910   55.3430 C.2   352  ARG352      0.2592
    195  O         24.7190   83.0600   55.5400 O.2   352  ARG352     -0.2718
    196  CB        26.7670   84.7780   57.3590 C.3   352  ARG352      0.0321
    197  CG        26.9730   85.8910   58.3660 C.3   352  ARG352      0.0489
    198  CD        28.2810   85.7230   59.1380 C.3   352  ARG352      0.2205
    199  NE        28.2840   84.6390   60.0980 N.pl3 352  ARG352     -0.0865
    200  CZ        29.3490   84.0650   60.6580 C.cat 352  ARG352      0.5346
    201  NH1       29.1360   83.0920   61.5300 N.pl3 352  ARG352      0.1354
    202  NH2       30.5990   84.4120   60.3610 N.pl3 352  ARG352      0.1354
    203  N         26.4610   83.8020   54.3330 N.am  353  PHE353     -0.1962
    204  CA        26.4280   82.6840   53.4070 C.3   353  PHE353      0.1771
    205  C         27.7800   82.5080   52.7400 C.2   353  PHE353      0.2619
    206  O         28.5710   83.4410   52.6650 O.2   353  PHE353     -0.2715
    207  CB        25.3460   82.8910   52.3410 C.3   353  PHE353      0.0574
    208  CG        25.6150   84.0310   51.3990 C.ar  353  PHE353     -0.0200
    209  CD1       25.1120   85.3070   51.6600 C.ar  353  PHE353     -0.0042
    210  CD2       26.3400   83.8230   50.2270 C.ar  353  PHE353     -0.0042
    211  CE1       25.3200   86.3580   50.7630 C.ar  353  PHE353     -0.0003
    212  CE2       26.5560   84.8750   49.3180 C.ar  353  PHE353     -0.0003
    213  CZ        26.0450   86.1380   49.5850 C.ar  353  PHE353     -0.0000
    214  N         28.0500   81.2990   52.2700 N.am  354  ALA354     -0.1977
    215  CA        29.3070   81.0150   51.5790 C.3   354  ALA354      0.1597
    216  C         28.9910   80.6470   50.1290 C.2   354  ALA354      0.2287
    217  O         27.8830   80.2060   49.8180 O.2   354  ALA354     -0.2864
    218  CB        30.0370   79.8660   52.2590 C.3   354  ALA354      0.0319
    219  N         35.9390   76.7880   47.9030 N.3   361  THR361     -0.1218
    220  CA        35.2310   77.9640   48.3830 C.3   361  THR361      0.1862
    221  C         35.6390   79.1680   47.5570 C.2   361  THR361      0.2287
    222  O         36.8220   79.5080   47.4740 O.2   361  THR361     -0.2866
    223  CB        35.5430   78.2270   49.8560 C.3   361  THR361      0.1770
    224  OG1       35.1630   77.0800   50.6270 O.3   361  THR361     -0.2211
    225  CG2       34.7780   79.4520   50.3580 C.3   361  THR361      0.0375
    226  N         32.6310   84.5630   50.3860 N.3   364  ALA364     -0.1231
    227  CA        32.0060   84.6420   51.6970 C.3   364  ALA364      0.1694
    228  C         31.2800   85.9720   51.7190 C.2   364  ALA364      0.2592
    229  O         31.9000   87.0220   51.5690 O.2   364  ALA364     -0.2718
    230  CB        33.0700   84.6120   52.7920 C.3   364  ALA364      0.0304
    231  N         29.9690   85.9400   51.9060 N.am  365  GLY365     -0.1957
    232  CA        29.2430   87.1860   51.9170 C.3   365  GLY365      0.1869
    233  C         28.1490   87.2480   52.9490 C.2   365  GLY365      0.2309
    234  O         28.0550   86.4170   53.8520 O.2   365  GLY365     -0.2863
@<TRIPOS>BOND
     1   162   161    2
     2   161   160    1
     3   163   160    1
     4   163   164    1
     5   160   159    1
     6   165   164   ar
     7   165   167   ar
     8   164   166   ar
     9   167   168   ar
    10   166   168   ar
    11   136   135    1
    12   136   137    1
    13   135   134    1
    14   134   133    1
    15   133   130    1
    16   130   129    1
    17   130   131    1
    18   124   123    2
    19   131   132    2
    20   131   138   am
    21   123   122    1
    22   138   139    1
    23   158   157    2
    24   222   221    2
    25   157   156    1
    26   221   220    1
    27   121   122    1
    28   219   220    1
    29   144   143   ar
    30   122   125    1
    31   220   223    1
    32   156   155    1
    33   125   126    1
    34   111   112    2
    35   111   110    1
    36   139   142    1
    37   139   140    1
    38   143   142    1
    39   143   145   ar
    40   155   148   am
    41   180   179    1
    42   178   179   ar
    43   178   176   ar
    44   110   109    1
    45   110   113    1
    46   212   213   ar
    47   212   210   ar
    48   126   128    1
    49   126   127    1
    50   146   140   am
    51   146   147    1
    52   213   211   ar
    53   140   141    2
    54   179   177   ar
    55   176   174   ar
    56   118   116   ar
    57   118   119   ar
    58   217   216    2
    59   223   225    1
    60   223   224    1
    61   116   114   ar
    62   169   170    1
    63   148   147    1
    64   148   149    2
    65   120   119    1
    66   216   215    1
    67   210   208   ar
    68   119   117   ar
    69    40    38   ar
    70    39    38   ar
    71   226   227    1
    72   114   113    1
    73   114   115   ar
    74   147   150    1
    75    38    37    1
    76   154   152   ar
    77   211   209   ar
    78   117   115   ar
    79   150   151    1
    80   177   175   ar
    81   174   175   ar
    82   174   173    1
    83    68    66   am
    84   170   173    1
    85   170   171    1
    86    37    36    1
    87   208   209   ar
    88   208   207    1
    89   152   151    1
    90   152   153   ar
    91    48    46    1
    92   229   228    2
    93   215   218    1
    94   215   214    1
    95   227   228    1
    96   227   230    1
    97   228   231   am
    98   231   232    1
    99   232   233    1
   100     8     6    1
   101    67    66    2
   102    66    65    1
   103   214   205   am
   104   171   172    2
   105   207   204    1
   106   206   205    2
   107    36    33    1
   108   205   204    1
   109    46    47    1
   110    46    45    1
   111   233   234    2
   112    27    28    1
   113    27    26    1
   114    28    29    2
   115   100    99    1
   116   204   203    1
   117     6     5    1
   118    65    64    1
   119    33    32    1
   120    33    34    1
   121    29    30    1
   122    29    31    1
   123    88    86   am
   124    45    42    1
   125    32    23   am
   126    25    26    1
   127    25    22    1
   128     7     5    1
   129     5     2    1
   130    64    61    1
   131   203   194   am
   132    97    99   ar
   133    97    95   ar
   134    99    98   ar
   135    35    34    2
   136    86    87    2
   137    86    85    1
   138    23    24    2
   139    23    22    1
   140    14    13    1
   141   194   195    2
   142   194   193    1
   143    42    43    1
   144    42    41    1
   145    43    44    2
   146    22    21    1
   147    61    62    1
   148    61    60    1
   149    95    94   ar
   150     2     1    1
   151     2     3    1
   152    98    96   ar
   153    85    84    1
   154   181   182    1
   155    63    62    2
   156    62    69   am
   157     9     3   am
   158     9    10    1
   159   193   192    1
   160   193   196    1
   161    74    73    1
   162    13    10    1
   163    13    15    1
   164    60    51   am
   165     3     4    2
   166    83    82    2
   167   184   183    2
   168    94    96   ar
   169    94    93    1
   170   183   182    1
   171    69    70    1
   172    10    11    1
   173   182   185    1
   174    84    81    1
   175   196   197    1
   176    70    73    1
   177    70    71    1
   178   185   186    1
   179    82    81    1
   180    82    89   am
   181    51    52    2
   182    51    50    1
   183    73    75    1
   184   190   189    1
   185    54    53    1
   186    54    55    1
   187    90    93    1
   188    90    89    1
   189    90    91    1
   190    53    50    1
   191    81    80    1
   192   186   187    1
   193   197   198    1
   194    11    12    2
   195    50    49    1
   196   187   188    1
   197    71    72    2
   198    71    76   am
   199    58    57    1
   200    20    17    1
   201    91    92    2
   202    91   101   am
   203   189   188    2
   204   189   191    1
   205   198   199    1
   206    57    59    1
   207    57    56    2
   208    76    77    1
   209    55    56    1
   210   101   102    1
   211   105   106    1
   212   105   102    1
   213    16    17    1
   214    17    18    1
   215   199   200    2
   216   108   106   ar
   217   106   107   ar
   218   202   200    1
   219   102   103    1
   220    77    78    1
   221   200   201    1
   222    18    19    2
   223   103   104    2
   224    78    79    2
