@<TRIPOS>MOLECULE
tmp/2bvrA01.pdb
 151 151 0 0 0
SMALL
GASTEIGER

@<TRIPOS>ATOM
      1  N          6.0880   -6.4560   17.2340 N.3    43  HIS43      -0.1241
      2  CA         6.2690   -7.8210   17.7230 C.3    43  HIS43       0.1621
      3  C          7.0170   -7.9070   19.0470 C.2    43  HIS43       0.2264
      4  O          6.9930   -8.9470   19.7070 O.2    43  HIS43      -0.2867
      5  CB         6.9440   -8.7160   16.6690 C.3    43  HIS43       0.0745
      6  CG         8.4340   -8.5810   16.6100 C.ar   43  HIS43       0.0817
      7  ND1        9.0700   -7.6860   15.7790 N.ar   43  HIS43      -0.2268
      8  CD2        9.4110   -9.2240   17.2920 C.ar   43  HIS43       0.1154
      9  CE1       10.3770   -7.7810   15.9530 C.ar   43  HIS43       0.1986
     10  NE2       10.6100   -8.7060   16.8660 N.ar   43  HIS43      -0.2212
     11  N          3.3110  -16.6470   20.4010 N.3    50  TRP50      -0.1241
     12  CA         4.2500  -16.9460   21.4790 C.3    50  TRP50       0.1605
     13  C          3.7270  -16.4880   22.8310 C.2    50  TRP50       0.2264
     14  O          4.4890  -16.3810   23.7940 O.2    50  TRP50      -0.2867
     15  CB         5.5890  -16.2600   21.2200 C.3    50  TRP50       0.0550
     16  CG         6.4220  -16.8930   20.1610 C.ar   50  TRP50       0.0003
     17  CD1        6.0590  -17.8990   19.3120 C.ar   50  TRP50       0.0946
     18  CD2        7.7700  -16.5520   19.8290 C.ar   50  TRP50       0.0152
     19  NE1        7.1020  -18.2070   18.4710 N.ar   50  TRP50      -0.2442
     20  CE2        8.1650  -17.3940   18.7680 C.ar   50  TRP50       0.0810
     21  CE3        8.6850  -15.6150   20.3280 C.ar   50  TRP50       0.0012
     22  CZ2        9.4370  -17.3270   18.1940 C.ar   50  TRP50       0.0191
     23  CZ3        9.9480  -15.5480   19.7580 C.ar   50  TRP50       0.0001
     24  CH2       10.3110  -16.4000   18.7020 C.ar   50  TRP50       0.0015
     25  N          4.2780  -10.2140    9.8330 N.3    96  LEU96      -0.1245
     26  CA         4.7330   -9.0360   10.5710 C.3    96  LEU96       0.1561
     27  C          4.6700   -7.7440    9.7500 C.2    96  LEU96       0.2260
     28  O          5.4600   -6.8240    9.9680 O.2    96  LEU96      -0.2867
     29  CB         6.1620   -9.2490   11.0950 C.3    96  LEU96       0.0270
     30  CG         6.3310   -9.4960   12.5990 C.3    96  LEU96       0.0019
     31  CD1        5.3710  -10.5760   13.0720 C.3    96  LEU96       0.0001
     32  CD2        7.7730   -9.8900   12.8880 C.3    96  LEU96       0.0001
     33  N          8.4890  -16.3770    2.8560 N.3   172  ILE172     -0.1245
     34  CA         7.5540  -15.4450    3.4740 C.3   172  ILE172      0.1561
     35  C          7.1660  -14.3590    2.4760 C.2   172  ILE172      0.2260
     36  O          7.9820  -13.9420    1.6500 O.2   172  ILE172     -0.2867
     37  CB         8.1760  -14.7900    4.7330 C.3   172  ILE172      0.0252
     38  CG1        8.4620  -15.8680    5.7820 C.3   172  ILE172      0.0019
     39  CG2        7.2400  -13.7270    5.2970 C.3   172  ILE172      0.0019
     40  CD1        9.0080  -15.3400    7.0910 C.3   172  ILE172      0.0001
     41  N         24.6640   -9.1810   10.7940 N.3   192  ASP192     -0.1225
     42  CA        23.2090   -9.2650   10.8520 C.3   192  ASP192      0.1805
     43  C         22.7420   -8.9990   12.2760 C.2   192  ASP192      0.2598
     44  O         23.5380   -9.0050   13.2170 O.2   192  ASP192     -0.2718
     45  CB        22.7660  -10.6720   10.4070 C.3   192  ASP192      0.1424
     46  CG        21.2540  -10.8100   10.2330 C.2   192  ASP192      0.3668
     47  OD1       20.5340   -9.7880   10.1530 O.co2 192  ASP192     -0.2456
     48  OD2       20.7810  -11.9690   10.1530 O.co2 192  ASP192     -0.2456
     49  N         21.4530   -8.7220   12.4240 N.am  193  ALA193     -0.1966
     50  CA        20.8760   -8.5270   13.7410 C.3   193  ALA193      0.1728
     51  C         20.5630   -9.9460   14.2100 C.2   193  ALA193      0.2616
     52  O         20.6070  -10.8870   13.4110 O.2   193  ALA193     -0.2715
     53  CB        19.5980   -7.7130   13.6440 C.3   193  ALA193      0.0334
     54  N         20.2620  -10.1100   15.4940 N.am  194  CYS194     -0.1954
     55  CA        19.9360  -11.4300   16.0250 C.3   194  CYS194      0.1843
     56  C         18.9530  -11.2740   17.1800 C.2   194  CYS194      0.2625
     57  O         18.4470  -10.1780   17.4210 O.2   194  CYS194     -0.2714
     58  CB        21.2120  -12.1430   16.4920 C.3   194  CYS194      0.0997
     59  SG        21.0660  -13.9420   16.6620 S.3   194  CYS194     -0.0797
     60  N         18.6790  -12.3640   17.8930 N.am  195  GLU195     -0.1977
     61  CA        17.7420  -12.3290   19.0100 C.3   195  GLU195      0.1602
     62  C         18.1040  -11.2590   20.0300 C.2   195  GLU195      0.2287
     63  O         19.2250  -11.2300   20.5350 O.2   195  GLU195     -0.2864
     64  CB        17.6950  -13.6850   19.7140 C.3   195  GLU195      0.0415
     65  CG        17.1450  -14.8190   18.8790 C.3   195  GLU195      0.1163
     66  CD        17.0090  -16.0930   19.6850 C.2   195  GLU195      0.3649
     67  OE1       16.3150  -16.0620   20.7240 O.co2 195  GLU195     -0.2457
     68  OE2       17.5930  -17.1220   19.2840 O.co2 195  GLU195     -0.2457
     69  N         15.7690   -7.0550   17.9270 N.3   198  SER198     -0.1217
     70  CA        14.4510   -6.6850   17.4150 C.3   198  SER198      0.1889
     71  C         13.9920   -5.3660   18.0080 C.2   198  SER198      0.2288
     72  O         14.1940   -5.1180   19.1950 O.2   198  SER198     -0.2866
     73  CB        13.4090   -7.7530   17.7830 C.3   198  SER198      0.2089
     74  OG        13.6400   -8.9770   17.1150 O.3   198  SER198     -0.2183
     75  N         14.4520   -2.9980   13.2190 N.3   218  VAL218     -0.1231
     76  CA        14.7960   -4.4190   13.1280 C.3   218  VAL218      0.1692
     77  C         13.4910   -5.1900   13.3280 C.2   218  VAL218      0.2593
     78  O         12.8950   -5.1440   14.4010 O.2   218  VAL218     -0.2718
     79  CB        15.8160   -4.8070   14.2220 C.3   218  VAL218      0.0266
     80  CG1       16.1480   -6.2850   14.1300 C.3   218  VAL218      0.0020
     81  CG2       17.0850   -3.9830   14.0660 C.3   218  VAL218      0.0020
     82  N         13.0550   -5.9010   12.2920 N.am  219  SER219     -0.1938
     83  CA        11.7830   -6.6130   12.3410 C.3   219  SER219      0.2055
     84  C         11.8370   -8.1350   12.4400 C.2   219  SER219      0.2643
     85  O         11.3660   -8.7070   13.4230 O.2   219  SER219     -0.2714
     86  CB        10.9400   -6.2020   11.1280 C.3   219  SER219      0.2130
     87  OG         9.6540   -6.7930   11.1570 O.3   219  SER219     -0.2179
     88  N         12.3860   -8.8010   11.4300 N.am  220  TRP220     -0.1959
     89  CA        12.4520  -10.2570   11.4700 C.3   220  TRP220      0.1771
     90  C         13.5240  -10.8330   10.5700 C.2   220  TRP220      0.2620
     91  O         14.0500  -10.1570    9.6850 O.2   220  TRP220     -0.2715
     92  CB        11.0960  -10.8780   11.1000 C.3   220  TRP220      0.0590
     93  CG        10.6240  -10.5840    9.7000 C.ar  220  TRP220      0.0006
     94  CD1        9.9140   -9.4960    9.2830 C.ar  220  TRP220      0.0946
     95  CD2       10.8180  -11.4050    8.5400 C.ar  220  TRP220      0.0152
     96  NE1        9.6470   -9.5880    7.9350 N.ar  220  TRP220     -0.2442
     97  CE2       10.1920  -10.7510    7.4560 C.ar  220  TRP220      0.0810
     98  CE3       11.4590  -12.6300    8.3120 C.ar  220  TRP220      0.0012
     99  CZ2       10.1880  -11.2820    6.1610 C.ar  220  TRP220      0.0191
    100  CZ3       11.4550  -13.1570    7.0210 C.ar  220  TRP220      0.0001
    101  CH2       10.8230  -12.4820    5.9660 C.ar  220  TRP220      0.0015
    102  N         13.8460  -12.0960   10.8220 N.am  221  GLY221     -0.1940
    103  CA        14.8410  -12.7940   10.0350 C.3   221  GLY221      0.2014
    104  C         14.7180  -14.2780   10.3110 C.2   221  GLY221      0.2639
    105  O         14.0780  -14.6850   11.2770 O.2   221  GLY221     -0.2714
    106  N         15.3140  -15.0940    9.4530 N.am  222  GLU222     -0.1963
    107  CA        15.2790  -16.5380    9.6340 C.3   222  GLU222      0.1733
    108  C         16.7030  -16.9210    9.9930 C.2   222  GLU222      0.2617
    109  O         17.5680  -17.0440    9.1260 O.2   222  GLU222     -0.2715
    110  CB        14.8250  -17.2160    8.3450 C.3   222  GLU222      0.0429
    111  CG        13.4340  -16.7850    7.9200 C.3   222  GLU222      0.1163
    112  CD        13.0440  -17.3180    6.5610 C.2   222  GLU222      0.3649
    113  OE1       12.7430  -18.5270    6.4530 O.co2 222  GLU222     -0.2457
    114  OE2       13.0480  -16.5260    5.5980 O.co2 222  GLU222     -0.2457
    115  N         16.9400  -17.0960   11.2880 N.am  223  GLY223     -0.1940
    116  CA        18.2750  -17.4090   11.7490 C.3   223  GLY223      0.2014
    117  C         19.0190  -16.0870   11.8070 C.2   223  GLY223      0.2639
    118  O         18.4020  -15.0230   11.6970 O.2   223  GLY223     -0.2714
    119  N         20.3340  -16.1410   11.9800 N.am  224  CYS224     -0.1967
    120  CA        21.1340  -14.9260   12.0400 C.3   224  CYS224      0.1712
    121  C         22.4150  -15.0790   11.2450 C.2   224  CYS224      0.2296
    122  O         23.1530  -16.0480   11.4150 O.2   224  CYS224     -0.2864
    123  CB        21.4820  -14.5920   13.4840 C.3   224  CYS224      0.0983
    124  SG        20.0490  -14.5530   14.5390 S.3   224  CYS224     -0.0798
    125  N         18.2500   -9.8070    6.7370 N.3   231  GLY231     -0.1210
    126  CA        17.4040   -9.3210    7.8060 C.3   231  GLY231      0.1956
    127  C         16.3500   -8.4090    7.2090 C.2   231  GLY231      0.2612
    128  O         16.6160   -7.7030    6.2330 O.2   231  GLY231     -0.2717
    129  N         15.1480   -8.4380    7.7730 N.am  232  PHE232     -0.1962
    130  CA        14.0670   -7.5940    7.2910 C.3   232  PHE232      0.1771
    131  C         13.7580   -6.4890    8.2800 C.2   232  PHE232      0.2619
    132  O         13.7410   -6.7020    9.4990 O.2   232  PHE232     -0.2715
    133  CB        12.8240   -8.4270    6.9810 C.3   232  PHE232      0.0574
    134  CG        12.9360   -9.1890    5.6940 C.ar  232  PHE232     -0.0200
    135  CD1       13.7140  -10.3390    5.6140 C.ar  232  PHE232     -0.0042
    136  CD2       12.3300   -8.7100    4.5400 C.ar  232  PHE232     -0.0042
    137  CE1       13.8900  -10.9970    4.3950 C.ar  232  PHE232     -0.0003
    138  CE2       12.5010   -9.3590    3.3200 C.ar  232  PHE232     -0.0003
    139  CZ        13.2810  -10.5020    3.2480 C.ar  232  PHE232     -0.0000
    140  N         13.4930   -5.3130    7.7250 N.am  233  TYR233     -0.1974
    141  CA        13.2550   -4.1110    8.5000 C.3   233  TYR233      0.1639
    142  C         11.9670   -3.3990    8.1350 C.2   233  TYR233      0.2290
    143  O         11.5750   -3.3530    6.9700 O.2   233  TYR233     -0.2864
    144  CB        14.4240   -3.1470    8.2810 C.3   233  TYR233      0.0560
    145  CG        15.7630   -3.7330    8.6490 C.ar  233  TYR233     -0.0198
    146  CD1       16.4150   -4.6420    7.8130 C.ar  233  TYR233     -0.0009
    147  CD2       16.3480   -3.4360    9.8760 C.ar  233  TYR233     -0.0009
    148  CE1       17.6100   -5.2420    8.2020 C.ar  233  TYR233      0.0417
    149  CE2       17.5370   -4.0290   10.2710 C.ar  233  TYR233      0.0417
    150  CZ        18.1630   -4.9310    9.4360 C.ar  233  TYR233      0.1957
    151  OH        19.3310   -5.5330    9.8480 O.3   233  TYR233     -0.2866
@<TRIPOS>BOND
     1    36    35    2
     2    35    34    1
     3    33    34    1
     4   139   138   ar
     5   139   137   ar
     6   138   136   ar
     7    34    37    1
     8   137   135   ar
     9   136   134   ar
    10    37    39    1
    11    37    38    1
    12   114   112   ar
    13   135   134   ar
    14   134   133    1
    15    38    40    1
    16   101    99   ar
    17   101   100   ar
    18    99    97   ar
    19   128   127    2
    20   113   112   ar
    21   112   111    1
    22   125   126    1
    23   143   142    2
    24   133   130    1
    25   100    98   ar
    26   127   129   am
    27   127   126    1
    28   130   129    1
    29   130   131    1
    30    97    96   ar
    31    97    95   ar
    32   140   131   am
    33   140   141    1
    34   146   148   ar
    35   146   145   ar
    36   111   110    1
    37    96    94   ar
    38   142   141    1
    39   148   150   ar
    40   131   132    2
    41   144   141    1
    42   144   145    1
    43    98    95   ar
    44   110   107    1
    45    95    93   ar
    46   145   147   ar
    47   109   108    2
    48    94    93   ar
    49   150   151    1
    50   150   149   ar
    51   106   107    1
    52   106   104   am
    53   107   108    1
    54    91    90    2
    55    93    92    1
    56    27    28    2
    57    27    26    1
    58    25    26    1
    59   147   149   ar
    60   108   115   am
    61   103   104    1
    62   103   102    1
    63    48    46   ar
    64    47    46   ar
    65    46    45    1
    66   104   105    2
    67    45    42    1
    68    90   102   am
    69    90    89    1
    70    26    29    1
    71    41    42    1
    72    42    43    1
    73    29    30    1
    74    92    89    1
    75    86    87    1
    76    86    83    1
    77   121   122    2
    78   121   120    1
    79   115   116    1
    80    88    89    1
    81    88    84   am
    82   118   117    2
    83   116   117    1
    84   117   119   am
    85   119   120    1
    86   120   123    1
    87    43    49   am
    88    43    44    2
    89    82    83    1
    90    82    77   am
    91    83    84    1
    92    49    50    1
    93    84    85    2
    94    30    32    1
    95    30    31    1
    96    76    75    1
    97    76    77    1
    98    76    79    1
    99    77    78    2
   100    52    51    2
   101   123   124    1
   102    53    50    1
   103    50    51    1
   104    81    79    1
   105    80    79    1
   106    51    54   am
   107   124    59    1
   108    54    55    1
   109     7     9   ar
   110     7     6   ar
   111     9    10   ar
   112    55    58    1
   113    55    56    1
   114    58    59    1
   115     6     5    1
   116     6     8   ar
   117     5     2    1
   118    10     8   ar
   119    74    73    1
   120    56    57    2
   121    56    60   am
   122     1     2    1
   123    70    73    1
   124    70    69    1
   125    70    71    1
   126     2     3    1
   127    60    61    1
   128    71    72    2
   129    22    24   ar
   130    22    20   ar
   131    19    20   ar
   132    19    17   ar
   133    24    23   ar
   134    20    18   ar
   135    65    66    1
   136    65    64    1
   137    61    64    1
   138    61    62    1
   139     3     4    2
   140    68    66   ar
   141    17    16   ar
   142    66    67   ar
   143    23    21   ar
   144    18    16   ar
   145    18    21   ar
   146    62    63    2
   147    16    15    1
   148    11    12    1
   149    15    12    1
   150    12    13    1
   151    13    14    2
