@<TRIPOS>MOLECULE
tmp/2bvsA00.pdb
 121 115 0 0 0
SMALL
GASTEIGER

@<TRIPOS>ATOM
      1  N         16.9170    0.4200   25.3060 N.3    17  MET17      -0.1245
      2  CA        16.7960   -0.9820   25.6690 C.3    17  MET17       0.1570
      3  C         15.4180   -1.1890   26.2790 C.2    17  MET17       0.2261
      4  O         15.0400   -0.4790   27.2150 O.2    17  MET17      -0.2867
      5  CB        17.8540   -1.3720   26.7050 C.3    17  MET17       0.0387
      6  CG        17.7400   -2.8200   27.1920 C.3    17  MET17       0.0595
      7  SD        18.8870   -3.2540   28.5350 S.3    17  MET17      -0.1393
      8  CE        20.4430   -3.2330   27.6560 C.3    17  MET17       0.0692
      9  N         13.3740   -3.2310   28.5560 N.3    19  PHE19      -0.1241
     10  CA        13.6960   -4.1040   29.6780 C.3    19  PHE19       0.1605
     11  C         12.4630   -4.6510   30.3930 C.2    19  PHE19       0.2264
     12  O         11.5650   -3.8980   30.7660 O.2    19  PHE19      -0.2867
     13  CB        14.5610   -3.3010   30.6580 C.3    19  PHE19       0.0534
     14  CG        15.2970   -4.1310   31.6710 C.ar   19  PHE19      -0.0203
     15  CD1       16.3330   -4.9780   31.2840 C.ar   19  PHE19      -0.0042
     16  CD2       14.9910   -4.0230   33.0240 C.ar   19  PHE19      -0.0042
     17  CE1       17.0560   -5.7010   32.2320 C.ar   19  PHE19      -0.0003
     18  CE2       15.7080   -4.7420   33.9790 C.ar   19  PHE19      -0.0003
     19  CZ        16.7420   -5.5800   33.5810 C.ar   19  PHE19      -0.0000
     20  N         13.8840   -9.6360   35.3400 N.3    24  GLN24      -0.1231
     21  CA        14.6700   -8.5840   34.7040 C.3    24  GLN24       0.1698
     22  C         15.4980   -9.1660   33.5640 C.2    24  GLN24       0.2592
     23  O         16.4490   -9.9140   33.7940 O.2    24  GLN24      -0.2718
     24  CB        15.5880   -7.9150   35.7330 C.3    24  GLN24       0.0381
     25  CG        14.8420   -7.1590   36.8240 C.3    24  GLN24       0.0905
     26  CD        15.7700   -6.4800   37.8130 C.2    24  GLN24       0.2608
     27  OE1       16.6090   -5.6610   37.4360 O.2    24  GLN24      -0.2717
     28  NE2       15.6210   -6.8140   39.0900 N.am   24  GLN24      -0.0878
     29  N         15.1320   -8.8210   32.3320 N.am   25  GLU25      -0.1966
     30  CA        15.8400   -9.3200   31.1600 C.3    25  GLU25       0.1733
     31  C         15.7000   -8.3860   29.9640 C.2    25  GLU25       0.2616
     32  O         14.8030   -7.5400   29.9200 O.2    25  GLU25      -0.2715
     33  CB        15.3060  -10.6990   30.7700 C.3    25  GLU25       0.0429
     34  CG        13.8610  -10.6770   30.2930 C.3    25  GLU25       0.1163
     35  CD        13.3750  -12.0320   29.8160 C.2    25  GLU25       0.3649
     36  OE1       13.9710  -12.5810   28.8640 O.co2  25  GLU25      -0.2457
     37  OE2       12.3950  -12.5480   30.3910 O.co2  25  GLU25      -0.2457
     38  N         16.5960   -8.5510   28.9980 N.am   26  LEU26      -0.1977
     39  CA        16.5740   -7.7530   27.7800 C.3    26  LEU26       0.1596
     40  C         15.5160   -8.3310   26.8560 C.2    26  LEU26       0.2287
     41  O         15.5430   -9.5200   26.5320 O.2    26  LEU26      -0.2864
     42  CB        17.9320   -7.8030   27.0760 C.3    26  LEU26       0.0297
     43  CG        17.9510   -7.3020   25.6260 C.3    26  LEU26       0.0022
     44  CD1       17.6760   -5.8090   25.5910 C.3    26  LEU26       0.0001
     45  CD2       19.3020   -7.6080   24.9940 C.3    26  LEU26       0.0001
     46  N         10.0570   -1.4630   31.1150 N.3    60  LEU60      -0.1245
     47  CA        10.8100   -0.2570   31.4170 C.3    60  LEU60       0.1561
     48  C         11.6830    0.0140   30.2010 C.2    60  LEU60       0.2260
     49  O         11.9960   -0.8960   29.4320 O.2    60  LEU60      -0.2867
     50  CB        11.7130   -0.4520   32.6380 C.3    60  LEU60       0.0270
     51  CG        11.0740   -0.5140   34.0240 C.3    60  LEU60       0.0019
     52  CD1       12.1570   -0.7730   35.0590 C.3    60  LEU60       0.0001
     53  CD2       10.3480    0.7900   34.3200 C.3    60  LEU60       0.0001
     54  N         15.3460    1.7330   29.0920 N.3    62  ARG62      -0.1245
     55  CA        16.6310    2.1980   29.6030 C.3    62  ARG62       0.1563
     56  C         17.3380    2.9210   28.4630 C.2    62  ARG62       0.2260
     57  O         17.6270    2.3360   27.4140 O.2    62  ARG62      -0.2867
     58  CB        17.4510    1.0180   30.1230 C.3    62  ARG62       0.0307
     59  CG        16.7070    0.2470   31.2170 C.3    62  ARG62       0.0489
     60  CD        17.4570   -0.9820   31.6990 C.3    62  ARG62       0.2205
     61  NE        18.6880   -0.6540   32.4130 N.pl3  62  ARG62      -0.0865
     62  CZ        19.4170   -1.5430   33.0810 C.cat  62  ARG62       0.5346
     63  NH1       19.0330   -2.8120   33.1330 N.pl3  62  ARG62       0.1354
     64  NH2       20.5390   -1.1720   33.6840 N.pl3  62  ARG62       0.1354
     65  N         25.6950   -3.7920   28.5270 N.3    68  ARG68      -0.1231
     66  CA        24.4540   -4.5490   28.4290 C.3    68  ARG68       0.1694
     67  C         23.7990   -4.8540   29.7750 C.2    68  ARG68       0.2593
     68  O         22.6420   -4.5090   30.0010 O.2    68  ARG68      -0.2718
     69  CB        24.6980   -5.8700   27.6930 C.3    68  ARG68       0.0321
     70  CG        23.4590   -6.7620   27.5900 C.3    68  ARG68       0.0489
     71  CD        23.7340   -8.0120   26.7640 C.3    68  ARG68       0.2205
     72  NE        24.6830   -8.9190   27.4080 N.pl3  68  ARG68      -0.0865
     73  CZ        24.3680   -9.7860   28.3670 C.cat  68  ARG68       0.5346
     74  NH1       23.1190   -9.8790   28.8030 N.pl3  68  ARG68       0.1354
     75  NH2       25.3080  -10.5590   28.8940 N.pl3  68  ARG68       0.1354
     76  N         24.5540   -5.4830   30.6720 N.am   69  THR69      -0.1939
     77  CA        24.0200   -5.9030   31.9660 C.3    69  THR69       0.2028
     78  C         24.1900   -5.0050   33.1840 C.2    69  THR69       0.2642
     79  O         23.4820   -5.1700   34.1770 O.2    69  THR69      -0.2714
     80  CB        24.6020   -7.2680   32.3550 C.3    69  THR69       0.1808
     81  OG1       26.0170   -7.1410   32.5430 O.3    69  THR69      -0.2208
     82  CG2       24.3330   -8.2930   31.2660 C.3    69  THR69       0.0379
     83  N         25.1160   -4.0620   33.1330 N.am   70  ARG70      -0.1963
     84  CA        25.3470   -3.2260   34.3000 C.3    70  ARG70       0.1729
     85  C         24.4570   -1.9970   34.4070 C.2    70  ARG70       0.2616
     86  O         23.9770   -1.4750   33.3990 O.2    70  ARG70      -0.2715
     87  CB        26.8140   -2.8130   34.3260 C.3    70  ARG70       0.0348
     88  CG        27.7550   -3.9800   34.0740 C.3    70  ARG70       0.0492
     89  CD        29.2100   -3.5560   34.0720 C.3    70  ARG70       0.2205
     90  NE        29.4670   -2.4320   33.1760 N.pl3  70  ARG70      -0.0865
     91  CZ        29.2860   -1.1540   33.4980 C.cat  70  ARG70       0.5346
     92  NH1       29.5480   -0.2090   32.6110 N.pl3  70  ARG70       0.1354
     93  NH2       28.8540   -0.8190   34.7080 N.pl3  70  ARG70       0.1354
     94  N         24.2100   -1.5590   35.6400 N.am   71  TYR71      -0.1974
     95  CA        23.4160   -0.3610   35.8680 C.3    71  TYR71       0.1639
     96  C         24.4150    0.7800   35.7630 C.2    71  TYR71       0.2290
     97  O         25.2740    0.9540   36.6300 O.2    71  TYR71      -0.2864
     98  CB        22.7710   -0.3550   37.2570 C.3    71  TYR71       0.0560
     99  CG        22.0790    0.9570   37.5470 C.ar   71  TYR71      -0.0198
    100  CD1       21.0260    1.4010   36.7450 C.ar   71  TYR71      -0.0009
    101  CD2       22.5260    1.7960   38.5680 C.ar   71  TYR71      -0.0009
    102  CE1       20.4400    2.6440   36.9440 C.ar   71  TYR71       0.0417
    103  CE2       21.9470    3.0460   38.7780 C.ar   71  TYR71       0.0417
    104  CZ        20.9070    3.4660   37.9610 C.ar   71  TYR71       0.1957
    105  OH        20.3440    4.7050   38.1460 O.3    71  TYR71      -0.2866
    106  N         16.3550    5.5620   33.3190 N.3    78  ILE78      -0.1245
    107  CA        15.3130    4.5550   33.2130 C.3    78  ILE78       0.1561
    108  C         13.9540    5.2390   33.2490 C.2    78  ILE78       0.2260
    109  O         13.6600    6.0130   34.1610 O.2    78  ILE78      -0.2867
    110  CB        15.4560    3.5330   34.3550 C.3    78  ILE78       0.0252
    111  CG1       16.8360    2.8740   34.2530 C.3    78  ILE78       0.0019
    112  CG2       14.3490    2.4940   34.2810 C.3    78  ILE78       0.0019
    113  CD1       17.1050    1.8030   35.2760 C.3    78  ILE78       0.0001
    114  N          9.5420    5.0040   32.7100 N.3    80  MET80      -0.1245
    115  CA         8.3510    4.1730   32.7820 C.3    80  MET80       0.1570
    116  C          7.4780    4.5050   31.5790 C.2    80  MET80       0.2261
    117  O          7.5590    5.6050   31.0300 O.2    80  MET80      -0.2867
    118  CB         7.5890    4.4490   34.0810 C.3    80  MET80       0.0387
    119  CG         8.4220    4.2330   35.3350 C.3    80  MET80       0.0595
    120  SD         7.4920    4.4840   36.8600 S.3    80  MET80      -0.1393
    121  CE         7.2650    2.7970   37.3990 C.3    80  MET80       0.0692
@<TRIPOS>BOND
     1    45    43    1
     2     1     2    1
     3    44    43    1
     4    43    42    1
     5     2     3    1
     6     2     5    1
     7     3     4    2
     8    41    40    2
     9     5     6    1
    10    71    72    1
    11    71    70    1
    12    40    39    1
    13    42    39    1
    14     6     7    1
    15    72    73    2
    16    57    56    2
    17    70    69    1
    18     8     7    1
    19    69    66    1
    20    39    38    1
    21    73    74    1
    22    73    75    1
    23    66    65    1
    24    66    67    1
    25    56    55    1
    26     9    10    1
    27    36    35   ar
    28    38    31   am
    29    54    55    1
    30    49    48    2
    31    55    58    1
    32    10    11    1
    33    10    13    1
    34    67    68    2
    35    67    76   am
    36    35    34    1
    37    35    37   ar
    38    32    31    2
    39    31    30    1
    40    58    59    1
    41    48    47    1
    42    34    33    1
    43    11    12    2
    44    13    14    1
    45    76    77    1
    46    33    30    1
    47   117   116    2
    48    46    47    1
    49    30    29    1
    50    59    60    1
    51    82    80    1
    52    15    14   ar
    53    15    17   ar
    54    47    50    1
    55   116   115    1
    56    14    16   ar
    57    60    61    1
    58    77    80    1
    59    77    78    1
    60    17    19   ar
    61    29    22   am
    62    80    81    1
    63    61    62    2
    64    92    91    1
    65    50    51    1
    66   114   115    1
    67   115   118    1
    68    16    18   ar
    69    62    63    1
    70    62    64    1
    71    83    78   am
    72    83    84    1
    73    90    91    2
    74    90    89    1
    75    78    79    2
    76   107   108    1
    77   107   106    1
    78   107   110    1
    79   108   109    2
    80    86    85    2
    81    91    93    1
    82    22    23    2
    83    22    21    1
    84    19    18   ar
    85    51    53    1
    86    51    52    1
    87    89    88    1
    88    88    87    1
    89   118   119    1
    90   111   110    1
    91   111   113    1
    92   112   110    1
    93    84    87    1
    94    84    85    1
    95    85    94   am
    96    21    20    1
    97    21    24    1
    98   119   120    1
    99    94    95    1
   100    24    25    1
   101    96    95    1
   102    96    97    2
   103    95    98    1
   104   100   102   ar
   105   100    99   ar
   106    25    26    1
   107   120   121    1
   108   102   104   ar
   109    98    99    1
   110    27    26    2
   111    99   101   ar
   112    26    28   am
   113   104   105    1
   114   104   103   ar
   115   101   103   ar
