@<TRIPOS>MOLECULE
tmp/2bvsA01.pdb
 198 196 0 0 0
SMALL
GASTEIGER

@<TRIPOS>ATOM
      1  N          6.1910   -6.6080   17.2460 N.3    43  HIS43      -0.1241
      2  CA         6.3640   -7.9670   17.7480 C.3    43  HIS43       0.1621
      3  C          7.0930   -8.0410   19.0830 C.2    43  HIS43       0.2264
      4  O          7.0680   -9.0750   19.7460 O.2    43  HIS43      -0.2867
      5  CB         7.0810   -8.8540   16.7180 C.3    43  HIS43       0.0745
      6  CG         8.5660   -8.6720   16.6840 C.ar   43  HIS43       0.0817
      7  ND1        9.2010   -7.8910   15.7440 N.ar   43  HIS43      -0.2268
      8  CD2        9.5400   -9.1580   17.4900 C.ar   43  HIS43       0.1154
      9  CE1       10.5020   -7.9030   15.9720 C.ar   43  HIS43       0.1986
     10  NE2       10.7340   -8.6640   17.0260 N.ar   43  HIS43      -0.2212
     11  N          2.6410  -10.5510   20.3260 N.3    47  TYR47      -0.1241
     12  CA         2.7800  -11.6940   19.4420 C.3    47  TYR47       0.1605
     13  C          2.0280  -12.8770   20.0360 C.2    47  TYR47       0.2264
     14  O          2.6110  -13.7530   20.6770 O.2    47  TYR47      -0.2867
     15  CB         4.2350  -12.0770   19.2150 C.3    47  TYR47       0.0534
     16  CG         4.3450  -13.0550   18.0770 C.ar   47  TYR47      -0.0201
     17  CD1        4.0720  -12.6560   16.7670 C.ar   47  TYR47      -0.0009
     18  CD2        4.6680  -14.3920   18.3070 C.ar   47  TYR47      -0.0009
     19  CE1        4.1160  -13.5670   15.7080 C.ar   47  TYR47       0.0417
     20  CE2        4.7150  -15.3120   17.2570 C.ar   47  TYR47       0.0417
     21  CZ         4.4390  -14.8930   15.9580 C.ar   47  TYR47       0.1957
     22  OH         4.5130  -15.7940   14.9170 O.3    47  TYR47      -0.2866
     23  N          2.9620  -16.7540   20.5680 N.3    50  TRP50      -0.1241
     24  CA         3.8720  -17.1030   21.6570 C.3    50  TRP50       0.1605
     25  C          3.3640  -16.5740   22.9950 C.2    50  TRP50       0.2264
     26  O          4.1250  -16.4560   23.9590 O.2    50  TRP50      -0.2867
     27  CB         5.2750  -16.5450   21.3820 C.3    50  TRP50       0.0550
     28  CG         5.9860  -17.2000   20.2330 C.ar   50  TRP50       0.0003
     29  CD1        5.5300  -18.2320   19.4620 C.ar   50  TRP50       0.0946
     30  CD2        7.2870  -16.8680   19.7320 C.ar   50  TRP50       0.0152
     31  NE1        6.4680  -18.5640   18.5110 N.ar   50  TRP50      -0.2442
     32  CE2        7.5560  -17.7430   18.6550 C.ar   50  TRP50       0.0810
     33  CE3        8.2520  -15.9170   20.0890 C.ar   50  TRP50       0.0012
     34  CZ2        8.7520  -17.6940   17.9290 C.ar   50  TRP50       0.0191
     35  CZ3        9.4440  -15.8680   19.3660 C.ar   50  TRP50       0.0001
     36  CH2        9.6810  -16.7530   18.2990 C.ar   50  TRP50       0.0015
     37  N          2.5400  -13.6250   23.8390 N.3    52  LYS52      -0.1245
     38  CA         3.1840  -12.3710   24.2050 C.3    52  LYS52       0.1561
     39  C          2.2300  -11.1990   24.0060 C.2    52  LYS52       0.2260
     40  O          1.7400  -10.9650   22.9000 O.2    52  LYS52      -0.2867
     41  CB         4.4460  -12.1540   23.3620 C.3    52  LYS52       0.0271
     42  CG         5.1530  -10.8290   23.6470 C.3    52  LYS52       0.0035
     43  CD         6.3910  -10.6330   22.7750 C.3    52  LYS52       0.0206
     44  CE         7.4830  -11.6350   23.1220 C.3    52  LYS52       0.1093
     45  NZ         8.7110  -11.4270   22.3040 N.3    52  LYS52      -0.1314
     46  N          0.4700  -13.4510   10.1320 N.3    94  GLU94      -0.1231
     47  CA         1.2260  -13.9770    9.0100 C.3    94  GLU94       0.1699
     48  C          2.7120  -13.6510    8.9080 C.2    94  GLU94       0.2592
     49  O          3.5580  -14.4120    9.3820 O.2    94  GLU94      -0.2718
     50  CB         0.5470  -13.5650    7.6990 C.3    94  GLU94       0.0402
     51  CG         1.1860  -14.1770    6.4590 C.3    94  GLU94       0.1161
     52  CD         0.6200  -13.6210    5.1670 C.2    94  GLU94       0.3649
     53  OE1       -0.6130  -13.6850    4.9770 O.co2  94  GLU94      -0.2457
     54  OE2        1.4100  -13.1270    4.3340 O.co2  94  GLU94      -0.2457
     55  N          3.0200  -12.5100    8.2970 N.am   95  ASN95      -0.1960
     56  CA         4.4020  -12.1130    8.0380 C.3    95  ASN95       0.1819
     57  C          4.9730  -10.9100    8.7840 C.2    95  ASN95       0.2621
     58  O          6.0180  -10.3900    8.3910 O.2    95  ASN95      -0.2715
     59  CB         4.5470  -11.8580    6.5420 C.3    95  ASN95       0.1195
     60  CG         3.5700  -10.8080    6.0440 C.2    95  ASN95       0.2630
     61  OD1        2.8220  -10.2140    6.8300 O.2    95  ASN95      -0.2716
     62  ND2        3.5720  -10.5660    4.7400 N.am   95  ASN95      -0.0877
     63  N          4.3070  -10.4620    9.8400 N.am   96  LEU96      -0.1977
     64  CA         4.7780   -9.3100   10.6110 C.3    96  LEU96       0.1596
     65  C          4.7610   -8.0100    9.7950 C.2    96  LEU96       0.2287
     66  O          5.5670   -7.1030   10.0280 O.2    96  LEU96      -0.2864
     67  CB         6.1930   -9.5640   11.1550 C.3    96  LEU96       0.0297
     68  CG         6.3920  -10.8150   12.0140 C.3    96  LEU96       0.0022
     69  CD1        7.8370  -10.8660   12.4960 C.3    96  LEU96       0.0001
     70  CD2        5.4400  -10.7950   13.2050 C.3    96  LEU96       0.0001
     71  N         23.9930  -17.1010   16.1770 N.3   146  GLU146     -0.1245
     72  CA        22.6970  -17.7650   16.1340 C.3   146  GLU146      0.1567
     73  C         22.5760  -18.8280   17.2220 C.2   146  GLU146      0.2260
     74  O         21.5400  -18.9420   17.8770 O.2   146  GLU146     -0.2867
     75  CB        22.4850  -18.4080   14.7630 C.3   146  GLU146      0.0388
     76  CG        21.0950  -18.9880   14.5610 C.3   146  GLU146      0.1160
     77  CD        20.9330  -19.6530   13.2090 C.2   146  GLU146      0.3649
     78  OE1       21.2550  -19.0130   12.1860 O.co2 146  GLU146     -0.2457
     79  OE2       20.4790  -20.8160   13.1680 O.co2 146  GLU146     -0.2457
     80  N          8.6250  -16.5090    2.8590 N.3   173  ILE173     -0.1245
     81  CA         7.6920  -15.5770    3.4790 C.3   173  ILE173      0.1561
     82  C          7.3030  -14.4890    2.4810 C.2   173  ILE173      0.2260
     83  O          8.1230  -14.0590    1.6680 O.2   173  ILE173     -0.2867
     84  CB         8.3290  -14.9260    4.7350 C.3   173  ILE173      0.0252
     85  CG1        8.6410  -16.0130    5.7670 C.3   173  ILE173      0.0019
     86  CG2        7.4020  -13.8580    5.3150 C.3   173  ILE173      0.0019
     87  CD1        9.2870  -15.5050    7.0380 C.3   173  ILE173      0.0001
     88  N         24.9130   -9.2840   10.7350 N.3   193  ASP193     -0.1225
     89  CA        23.4590   -9.3790   10.7980 C.3   193  ASP193      0.1805
     90  C         22.9990   -9.0890   12.2200 C.2   193  ASP193      0.2598
     91  O         23.8060   -9.0400   13.1490 O.2   193  ASP193     -0.2718
     92  CB        23.0250  -10.7990   10.3840 C.3   193  ASP193      0.1424
     93  CG        21.5160  -10.9480   10.2050 C.2   193  ASP193      0.3668
     94  OD1       20.7880   -9.9330   10.1590 O.co2 193  ASP193     -0.2456
     95  OD2       21.0530  -12.1080   10.0900 O.co2 193  ASP193     -0.2456
     96  N         21.7030   -8.8540   12.3740 N.am  194  ALA194     -0.1966
     97  CA        21.1280   -8.6410   13.6900 C.3   194  ALA194      0.1728
     98  C         20.8590  -10.0630   14.1800 C.2   194  ALA194      0.2616
     99  O         20.9270  -11.0110   13.3920 O.2   194  ALA194     -0.2715
    100  CB        19.8200   -7.8650   13.5790 C.3   194  ALA194      0.0334
    101  N         20.5760  -10.2220   15.4680 N.am  195  CYS195     -0.1954
    102  CA        20.2880  -11.5440   16.0250 C.3   195  CYS195      0.1843
    103  C         19.2820  -11.4050   17.1600 C.2   195  CYS195      0.2625
    104  O         18.7190  -10.3300   17.3680 O.2   195  CYS195     -0.2714
    105  CB        21.5750  -12.2070   16.5360 C.3   195  CYS195      0.0997
    106  SG        21.5150  -14.0240   16.6900 S.3   195  CYS195     -0.0797
    107  N         19.0540  -12.4900   17.8940 N.am  196  GLU196     -0.1977
    108  CA        18.0940  -12.4760   18.9930 C.3   196  GLU196      0.1602
    109  C         18.4110  -11.4080   20.0290 C.2   196  GLU196      0.2287
    110  O         19.4980  -11.4000   20.6040 O.2   196  GLU196     -0.2864
    111  CB        18.0500  -13.8430   19.6760 C.3   196  GLU196      0.0415
    112  CG        16.9810  -13.9560   20.7470 C.3   196  GLU196      0.1163
    113  CD        16.9320  -15.3320   21.3820 C.2   196  GLU196      0.3649
    114  OE1       16.9080  -16.3280   20.6300 O.co2 196  GLU196     -0.2457
    115  OE2       16.9150  -15.4160   22.6280 O.co2 196  GLU196     -0.2457
    116  N         16.0290   -7.1660   17.8280 N.3   199  SER199     -0.1217
    117  CA        14.7420   -6.7610   17.2710 C.3   199  SER199      0.1889
    118  C         14.2210   -5.4970   17.9260 C.2   199  SER199      0.2288
    119  O         14.3960   -5.2930   19.1280 O.2   199  SER199     -0.2866
    120  CB        13.7050   -7.8800   17.4370 C.3   199  SER199      0.2089
    121  OG        14.0330   -9.0000   16.6370 O.3   199  SER199     -0.2183
    122  N         14.6610   -3.1070   13.1730 N.3   219  VAL219     -0.1231
    123  CA        15.0200   -4.5240   13.0830 C.3   219  VAL219      0.1692
    124  C         13.7290   -5.3120   13.2890 C.2   219  VAL219      0.2593
    125  O         13.1370   -5.2710   14.3660 O.2   219  VAL219     -0.2718
    126  CB        16.0570   -4.8980   14.1640 C.3   219  VAL219      0.0266
    127  CG1       16.3870   -6.3770   14.0850 C.3   219  VAL219      0.0020
    128  CG2       17.3230   -4.0620   13.9770 C.3   219  VAL219      0.0020
    129  N         13.2920   -6.0290   12.2580 N.am  220  SER220     -0.1938
    130  CA        12.0250   -6.7480   12.3340 C.3   220  SER220      0.2055
    131  C         12.0920   -8.2670   12.4360 C.2   220  SER220      0.2643
    132  O         11.6370   -8.8400   13.4270 O.2   220  SER220     -0.2714
    133  CB        11.1480   -6.3380   11.1420 C.3   220  SER220      0.2130
    134  OG         9.8710   -6.9480   11.1950 O.3   220  SER220     -0.2179
    135  N         12.6400   -8.9330   11.4260 N.am  221  TRP221     -0.1959
    136  CA        12.7130  -10.3890   11.4770 C.3   221  TRP221      0.1771
    137  C         13.7810  -10.9710   10.5720 C.2   221  TRP221      0.2620
    138  O         14.3050  -10.2970    9.6910 O.2   221  TRP221     -0.2715
    139  CB        11.3500  -11.0110   11.1230 C.3   221  TRP221      0.0590
    140  CG        10.8580  -10.7220    9.7240 C.ar  221  TRP221      0.0006
    141  CD1       10.1420   -9.6370    9.3150 C.ar  221  TRP221      0.0946
    142  CD2       11.0340  -11.5470    8.5620 C.ar  221  TRP221      0.0152
    143  NE1        9.8550   -9.7330    7.9720 N.ar  221  TRP221     -0.2442
    144  CE2       10.3910  -10.8960    7.4860 C.ar  221  TRP221      0.0810
    145  CE3       11.6720  -12.7730    8.3280 C.ar  221  TRP221      0.0012
    146  CZ2       10.3650  -11.4320    6.1920 C.ar  221  TRP221      0.0191
    147  CZ3       11.6460  -13.3050    7.0390 C.ar  221  TRP221      0.0001
    148  CH2       10.9960  -12.6330    5.9910 C.ar  221  TRP221      0.0015
    149  N         14.1070  -12.2340   10.8170 N.am  222  GLY222     -0.1940
    150  CA        15.0970  -12.9200   10.0140 C.3   222  GLY222      0.2014
    151  C         14.9910  -14.4030   10.2910 C.2   222  GLY222      0.2639
    152  O         14.3970  -14.8060   11.2840 O.2   222  GLY222     -0.2714
    153  N         15.5440  -15.2210    9.4090 N.am  223  GLU223     -0.1963
    154  CA        15.5140  -16.6640    9.6010 C.3   223  GLU223      0.1733
    155  C         16.9460  -17.0490    9.9320 C.2   223  GLU223      0.2617
    156  O         17.7940  -17.1930    9.0520 O.2   223  GLU223     -0.2715
    157  CB        15.0030  -17.3430    8.3290 C.3   223  GLU223      0.0429
    158  CG        13.5710  -16.9220    8.0090 C.3   223  GLU223      0.1163
    159  CD        13.0850  -17.4100    6.6640 C.2   223  GLU223      0.3649
    160  OE1       12.5100  -18.5200    6.6000 O.co2 223  GLU223     -0.2457
    161  OE2       13.2850  -16.6820    5.6700 O.co2 223  GLU223     -0.2457
    162  N         17.2070  -17.1850   11.2270 N.am  224  GLY224     -0.1940
    163  CA        18.5470  -17.4910   11.6790 C.3   224  GLY224      0.2014
    164  C         19.2920  -16.1700   11.7380 C.2   224  GLY224      0.2639
    165  O         18.6780  -15.1060   11.6190 O.2   224  GLY224     -0.2714
    166  N         20.6050  -16.2280   11.9200 N.am  225  CYS225     -0.1967
    167  CA        21.4150  -15.0170   11.9830 C.3   225  CYS225      0.1712
    168  C         22.6960  -15.1650   11.1840 C.2   225  CYS225      0.2296
    169  O         23.4500  -16.1200   11.3650 O.2   225  CYS225     -0.2864
    170  CB        21.7780  -14.6900   13.4270 C.3   225  CYS225      0.0983
    171  SG        20.3760  -14.6810   14.5370 S.3   225  CYS225     -0.0798
    172  N         18.4890   -9.9350    6.7190 N.3   232  GLY232     -0.1210
    173  CA        17.6420   -9.4320    7.7790 C.3   232  GLY232      0.1956
    174  C         16.5790   -8.5340    7.1770 C.2   232  GLY232      0.2612
    175  O         16.8350   -7.8340    6.1930 O.2   232  GLY232     -0.2717
    176  N         15.3830   -8.5630    7.7550 N.am  233  PHE233     -0.1962
    177  CA        14.2800   -7.7390    7.2780 C.3   233  PHE233      0.1771
    178  C         13.9630   -6.6370    8.2660 C.2   233  PHE233      0.2619
    179  O         13.9580   -6.8470    9.4830 O.2   233  PHE233     -0.2715
    180  CB        13.0480   -8.5990    6.9820 C.3   233  PHE233      0.0574
    181  CG        13.1650   -9.3680    5.7010 C.ar  233  PHE233     -0.0200
    182  CD1       13.9660  -10.5010    5.6220 C.ar  233  PHE233     -0.0042
    183  CD2       12.5380   -8.9110    4.5490 C.ar  233  PHE233     -0.0042
    184  CE1       14.1460  -11.1680    4.4070 C.ar  233  PHE233     -0.0003
    185  CE2       12.7130   -9.5710    3.3300 C.ar  233  PHE233     -0.0003
    186  CZ        13.5180  -10.6990    3.2630 C.ar  233  PHE233     -0.0000
    187  N         13.6960   -5.4580    7.7180 N.am  234  TYR234     -0.1974
    188  CA        13.4550   -4.2660    8.5070 C.3   234  TYR234      0.1639
    189  C         12.1710   -3.5570    8.1450 C.2   234  TYR234      0.2290
    190  O         11.7940   -3.4910    6.9790 O.2   234  TYR234     -0.2864
    191  CB        14.6190   -3.2960    8.2970 C.3   234  TYR234      0.0560
    192  CG        15.9650   -3.8850    8.6380 C.ar  234  TYR234     -0.0198
    193  CD1       16.5980   -4.7990    7.7870 C.ar  234  TYR234     -0.0009
    194  CD2       16.5770   -3.5850    9.8550 C.ar  234  TYR234     -0.0009
    195  CE1       17.8000   -5.4030    8.1530 C.ar  234  TYR234      0.0417
    196  CE2       17.7730   -4.1810   10.2260 C.ar  234  TYR234      0.0417
    197  CZ        18.3760   -5.0900    9.3770 C.ar  234  TYR234      0.1957
    198  OH        19.5420   -5.6990    9.7810 O.3   234  TYR234     -0.2866
@<TRIPOS>BOND
     1    83    82    2
     2    82    81    1
     3    80    81    1
     4   186   185   ar
     5   186   184   ar
     6   185   183   ar
     7    81    84    1
     8    54    52   ar
     9   184   182   ar
    10   183   181   ar
    11    84    86    1
    12    84    85    1
    13    62    60   am
    14    53    52   ar
    15    52    51    1
    16   182   181   ar
    17   161   159   ar
    18   181   180    1
    19    85    87    1
    20   148   146   ar
    21   148   147   ar
    22    60    59    1
    23    60    61    2
    24   146   144   ar
    25   175   174    2
    26    51    50    1
    27    59    56    1
    28   160   159   ar
    29   159   158    1
    30   172   173    1
    31   190   189    2
    32   180   177    1
    33   147   145   ar
    34   174   176   am
    35   174   173    1
    36   177   176    1
    37   177   178    1
    38   144   143   ar
    39   144   142   ar
    40    50    47    1
    41   187   178   am
    42   187   188    1
    43   193   195   ar
    44   193   192   ar
    45   143   141   ar
    46   158   157    1
    47    56    55    1
    48    56    57    1
    49   189   188    1
    50   195   197   ar
    51   178   179    2
    52    55    48   am
    53   191   188    1
    54   191   192    1
    55   145   142   ar
    56   157   154    1
    57    58    57    2
    58   142   140   ar
    59   192   194   ar
    60    57    63   am
    61    48    47    1
    62    48    49    2
    63    47    46    1
    64   156   155    2
    65   141   140   ar
    66   197   198    1
    67   197   196   ar
    68   153   154    1
    69   153   151   am
    70   154   155    1
    71   138   137    2
    72   140   139    1
    73    65    66    2
    74    65    64    1
    75    63    64    1
    76   194   196   ar
    77   155   162   am
    78   150   151    1
    79   150   149    1
    80    95    93   ar
    81    94    93   ar
    82    93    92    1
    83   151   152    2
    84    92    89    1
    85   137   149   am
    86   137   136    1
    87    64    67    1
    88    88    89    1
    89    89    90    1
    90   139   136    1
    91   133   134    1
    92   133   130    1
    93    67    68    1
    94   168   169    2
    95   168   167    1
    96   162   163    1
    97   135   136    1
    98   135   131   am
    99   165   164    2
   100   163   164    1
   101   164   166   am
   102   166   167    1
   103   167   170    1
   104    68    69    1
   105    68    70    1
   106    78    77   ar
   107    90    96   am
   108    90    91    2
   109   129   130    1
   110   129   124   am
   111   130   131    1
   112    96    97    1
   113   131   132    2
   114   123   122    1
   115   123   124    1
   116   123   126    1
   117    79    77   ar
   118    77    76    1
   119   124   125    2
   120    99    98    2
   121   170   171    1
   122   100    97    1
   123    97    98    1
   124   128   126    1
   125   127   126    1
   126    98   101   am
   127   171   106    1
   128    76    75    1
   129    75    72    1
   130    22    21    1
   131   101   102    1
   132    19    21   ar
   133    19    17   ar
   134     7     9   ar
   135     7     6   ar
   136    21    20   ar
   137     9    10   ar
   138   102   105    1
   139   102   103    1
   140    72    71    1
   141    72    73    1
   142   105   106    1
   143   121   120    1
   144     6     5    1
   145     6     8   ar
   146     5     2    1
   147    17    16   ar
   148    10     8   ar
   149   103   104    2
   150   103   107   am
   151    73    74    2
   152     1     2    1
   153    20    18   ar
   154   117   120    1
   155   117   116    1
   156   117   118    1
   157     2     3    1
   158   107   108    1
   159   118   119    2
   160    34    36   ar
   161    34    32   ar
   162    16    18   ar
   163    16    15    1
   164    36    35   ar
   165    31    32   ar
   166    31    29   ar
   167    32    30   ar
   168   108   111    1
   169   108   109    1
   170     3     4    2
   171    15    12    1
   172    35    33   ar
   173    12    13    1
   174    12    11    1
   175    29    28   ar
   176   111   112    1
   177    30    33   ar
   178    30    28   ar
   179   109   110    2
   180    13    14    2
   181    28    27    1
   182    23    24    1
   183   114   113   ar
   184   112   113    1
   185   113   115   ar
   186    27    24    1
   187    24    25    1
   188    45    44    1
   189    43    44    1
   190    43    42    1
   191    40    39    2
   192    25    26    2
   193    41    42    1
   194    41    38    1
   195    37    38    1
   196    39    38    1
