@<TRIPOS>MOLECULE
tmp/2bvtA00.pdb
 150 147 0 0 0
SMALL
GASTEIGER

@<TRIPOS>ATOM
      1  N         34.9050   19.8270  110.7690 N.3    33  GLN33      -0.1245
      2  CA        34.9550   18.3740  110.9710 C.3    33  GLN33       0.1566
      3  C         36.2090   17.7160  110.3730 C.2    33  GLN33       0.2260
      4  O         36.5180   17.9050  109.2000 O.2    33  GLN33      -0.2867
      5  CB        33.6910   17.7370  110.3700 C.3    33  GLN33       0.0367
      6  CG        33.5490   16.2250  110.5890 C.3    33  GLN33       0.0905
      7  CD        33.1520   15.8530  112.0120 C.2    33  GLN33       0.2608
      8  OE1       33.1060   14.6700  112.3720 O.2    33  GLN33      -0.2717
      9  NE2       32.8560   16.8610  112.8250 N.am   33  GLN33      -0.0878
     10  N         41.6900   15.0490  107.5760 N.3    38  PHE38      -0.1241
     11  CA        41.2460   14.9760  106.1870 C.3    38  PHE38       0.1605
     12  C         41.4970   16.3200  105.5190 C.2    38  PHE38       0.2264
     13  O         40.9980   17.3470  105.9770 O.2    38  PHE38      -0.2867
     14  CB        39.7590   14.6630  106.1110 C.3    38  PHE38       0.0534
     15  CG        39.4460   13.2030  106.1310 C.ar   38  PHE38      -0.0203
     16  CD1       39.8960   12.3730  105.1260 C.ar   38  PHE38      -0.0042
     17  CD2       38.6270   12.6770  107.1160 C.ar   38  PHE38      -0.0042
     18  CE1       39.5510   11.0300  105.1100 C.ar   38  PHE38      -0.0003
     19  CE2       38.2770   11.3330  107.1070 C.ar   38  PHE38      -0.0003
     20  CZ        38.7280   10.5130  106.0970 C.ar   38  PHE38      -0.0000
     21  N         34.2540   12.1640  114.9030 N.3    66  ASP66      -0.1239
     22  CA        33.1160   11.2570  114.9030 C.3    66  ASP66       0.1674
     23  C         33.5740    9.8730  115.3410 C.2    66  ASP66       0.2266
     24  O         34.7480    9.5230  115.1700 O.2    66  ASP66      -0.2867
     25  CB        32.4810   11.2020  113.5110 C.3    66  ASP66       0.1410
     26  CG        31.1460   10.4750  113.5080 C.2    66  ASP66       0.3668
     27  OD1       31.1400    9.2280  113.4250 O.co2  66  ASP66      -0.2456
     28  OD2       30.0970   11.1510  113.6030 O.co2  66  ASP66      -0.2456
     29  N         33.1510    7.2530  113.9990 N.3    68  LEU68      -0.1245
     30  CA        33.5710    6.4700  112.8460 C.3    68  LEU68       0.1561
     31  C         35.0720    6.2040  112.9490 C.2    68  LEU68       0.2260
     32  O         35.5780    5.2090  112.4310 O.2    68  LEU68      -0.2867
     33  CB        33.2670    7.2170  111.5480 C.3    68  LEU68       0.0270
     34  CG        31.8690    6.9660  110.9790 C.3    68  LEU68       0.0019
     35  CD1       31.6210    7.8160  109.7300 C.3    68  LEU68       0.0001
     36  CD2       31.7540    5.4840  110.6550 C.3    68  LEU68       0.0001
     37  N         36.7020    3.7820  110.0570 N.3    73  ASN73      -0.1225
     38  CA        36.2520    4.3000  108.7720 C.3    73  ASN73       0.1785
     39  C         36.7010    5.7110  108.4190 C.2    73  ASN73       0.2597
     40  O         36.7480    6.0730  107.2480 O.2    73  ASN73      -0.2718
     41  CB        34.7400    4.2000  108.7120 C.3    73  ASN73       0.1169
     42  CG        34.2650    2.7860  108.9190 C.2    73  ASN73       0.2627
     43  OD1       34.4420    1.9250  108.0530 O.2    73  ASN73      -0.2716
     44  ND2       33.6780    2.5250  110.0830 N.am   73  ASN73      -0.0877
     45  N         37.0110    6.5190  109.4210 N.am   74  GLU74      -0.1965
     46  CA        37.4880    7.8700  109.1550 C.3    74  GLU74       0.1733
     47  C         38.8280    8.0190  109.8770 C.2    74  GLU74       0.2616
     48  O         38.9500    7.6840  111.0530 O.2    74  GLU74      -0.2715
     49  CB        36.4700    8.9250  109.6350 C.3    74  GLU74       0.0429
     50  CG        35.0790    8.7840  108.9990 C.3    74  GLU74       0.1163
     51  CD        34.2060   10.0390  109.1080 C.2    74  GLU74       0.3649
     52  OE1       33.9270   10.5170  110.2290 O.co2  74  GLU74      -0.2457
     53  OE2       33.7800   10.5460  108.0530 O.co2  74  GLU74      -0.2457
     54  N         39.8410    8.4840  109.1570 N.am   75  ARG75      -0.1977
     55  CA        41.1560    8.6520  109.7450 C.3    75  ARG75       0.1597
     56  C         41.0740    9.5860  110.9440 C.2    75  ARG75       0.2287
     57  O         40.1420   10.3820  111.0440 O.2    75  ARG75      -0.2864
     58  CB        42.1200    9.2010  108.6870 C.3    75  ARG75       0.0334
     59  CG        42.5270    8.1480  107.6500 C.3    75  ARG75       0.0492
     60  CD        43.6340    8.6690  106.7410 C.3    75  ARG75       0.2205
     61  NE        44.5060    7.6160  106.1980 N.pl3  75  ARG75      -0.0865
     62  CZ        44.1350    6.6870  105.3120 C.cat  75  ARG75       0.5346
     63  NH1       42.8870    6.6540  104.8440 N.pl3  75  ARG75       0.1354
     64  NH2       45.0220    5.7940  104.8810 N.pl3  75  ARG75       0.1354
     65  N         28.2700    8.6960  113.9610 N.3   109  HIS109     -0.1241
     66  CA        27.5320    8.1100  112.8470 C.3   109  HIS109      0.1621
     67  C         27.6180    6.6150  113.0810 C.2   109  HIS109      0.2264
     68  O         28.2500    5.8640  112.3160 O.2   109  HIS109     -0.2867
     69  CB        28.1670    8.4750  111.5060 C.3   109  HIS109      0.0745
     70  CG        27.8280    9.8620  111.0410 C.ar  109  HIS109      0.0817
     71  ND1       28.2880   10.9880  111.6770 N.ar  109  HIS109     -0.2268
     72  CD2       27.0390   10.2870  110.0260 C.ar  109  HIS109      0.1154
     73  CE1       27.7950   12.0630  111.0750 C.ar  109  HIS109      0.1986
     74  NE2       27.0380   11.6630  110.0760 N.ar  109  HIS109     -0.2212
     75  N         25.4010    3.7650  109.1020 N.3   119  PHE119     -0.1227
     76  CA        24.4010    4.6370  109.6930 C.3   119  PHE119      0.1736
     77  C         23.3330    4.9850  108.6700 C.2   119  PHE119      0.2595
     78  O         22.2030    5.3270  109.0310 O.2   119  PHE119     -0.2718
     79  CB        25.0810    5.8990  110.1820 C.3   119  PHE119      0.0547
     80  CG        25.9830    6.5020  109.1680 C.ar  119  PHE119     -0.0202
     81  CD1       25.4760    7.3260  108.1730 C.ar  119  PHE119     -0.0042
     82  CD2       27.3400    6.1950  109.1660 C.ar  119  PHE119     -0.0042
     83  CE1       26.3120    7.8420  107.1860 C.ar  119  PHE119     -0.0003
     84  CE2       28.1830    6.6990  108.1880 C.ar  119  PHE119     -0.0003
     85  CZ        27.6700    7.5250  107.1920 C.ar  119  PHE119     -0.0000
     86  N         23.6930    4.8990  107.3930 N.am  120  TYR120     -0.1976
     87  CA        22.7520    5.1980  106.3250 C.3   120  TYR120      0.1639
     88  C         21.7970    4.0360  106.0590 C.2   120  TYR120      0.2290
     89  O         20.7420    4.2160  105.4570 O.2   120  TYR120     -0.2864
     90  CB        23.5030    5.5950  105.0480 C.3   120  TYR120      0.0560
     91  CG        23.7520    7.0970  104.9200 C.ar  120  TYR120     -0.0198
     92  CD1       23.1130    8.0170  105.7680 C.ar  120  TYR120     -0.0009
     93  CD2       24.5820    7.6090  103.9040 C.ar  120  TYR120     -0.0009
     94  CE1       23.2910    9.4110  105.6060 C.ar  120  TYR120      0.0417
     95  CE2       24.7660    9.0020  103.7310 C.ar  120  TYR120      0.0417
     96  CZ        24.1160    9.8920  104.5830 C.ar  120  TYR120      0.1957
     97  OH        24.2840   11.2520  104.4050 O.3   120  TYR120     -0.2866
     98  N         31.1340   20.8740  107.4600 N.3   318  TRP318     -0.1241
     99  CA        31.6500   19.5100  107.4330 C.3   318  TRP318      0.1605
    100  C         33.0470   19.2510  106.8610 C.2   318  TRP318      0.2264
    101  O         33.7420   20.1620  106.4150 O.2   318  TRP318     -0.2867
    102  CB        30.6410   18.6020  106.7320 C.3   318  TRP318      0.0550
    103  CG        30.5770   17.2340  107.3280 C.ar  318  TRP318      0.0003
    104  CD1       30.7860   16.0450  106.6880 C.ar  318  TRP318      0.0946
    105  CD2       30.2740   16.9120  108.6890 C.ar  318  TRP318      0.0152
    106  NE1       30.6280   15.0000  107.5660 N.ar  318  TRP318     -0.2442
    107  CE2       30.3110   15.5020  108.8030 C.ar  318  TRP318      0.0810
    108  CE3       29.9660   17.6770  109.8270 C.ar  318  TRP318      0.0012
    109  CZ2       30.0550   14.8350  110.0190 C.ar  318  TRP318      0.0191
    110  CZ3       29.7100   17.0140  111.0370 C.ar  318  TRP318      0.0001
    111  CH2       29.7540   15.6060  111.1180 C.ar  318  TRP318      0.0015
    112  N         36.8320   15.7590  102.7780 N.3   321  PHE321     -0.1227
    113  CA        37.2490   14.4110  102.3940 C.3   321  PHE321      0.1736
    114  C         38.0090   14.3480  101.0900 C.2   321  PHE321      0.2595
    115  O         39.0840   13.7510  101.0180 O.2   321  PHE321     -0.2718
    116  CB        36.0340   13.4840  102.2760 C.3   321  PHE321      0.0547
    117  CG        35.2660   13.3030  103.5600 C.ar  321  PHE321     -0.0202
    118  CD1       35.9150   12.8820  104.7290 C.ar  321  PHE321     -0.0042
    119  CD2       33.8900   13.5190  103.5950 C.ar  321  PHE321     -0.0042
    120  CE1       35.2020   12.6740  105.9060 C.ar  321  PHE321     -0.0003
    121  CE2       33.1660   13.3110  104.7680 C.ar  321  PHE321     -0.0003
    122  CZ        33.8190   12.8880  105.9290 C.ar  321  PHE321     -0.0000
    123  N         37.4400   14.9560  100.0540 N.am  322  ASP322     -0.1974
    124  CA        38.0570   14.9480   98.7280 C.3   322  ASP322      0.1709
    125  C         37.5640   16.0760   97.8070 C.2   322  ASP322      0.2293
    126  O         36.8750   17.0000   98.2360 O.2   322  ASP322     -0.2864
    127  CB        37.8260   13.5830   98.0700 C.3   322  ASP322      0.1436
    128  CG        36.3750   13.1450   98.1410 C.2   322  ASP322      0.3671
    129  OD1       35.5180   13.8670   97.5860 O.co2 322  ASP322     -0.2456
    130  OD2       36.0900   12.0880   98.7530 O.co2 322  ASP322     -0.2456
    131  N         33.6620   15.9290   97.3070 N.3   325  GLN325     -0.1245
    132  CA        33.0210   16.3380   98.5390 C.3   325  GLN325      0.1566
    133  C         33.9550   16.8810   99.6130 C.2   325  GLN325      0.2260
    134  O         34.7320   16.1440  100.2150 O.2   325  GLN325     -0.2867
    135  CB        32.2180   15.1710   99.1210 C.3   325  GLN325      0.0367
    136  CG        31.5860   15.4740  100.4700 C.3   325  GLN325      0.0905
    137  CD        30.8400   14.2870  101.0440 C.2   325  GLN325      0.2608
    138  OE1       31.3250   13.1510  101.0070 O.2   325  GLN325     -0.2717
    139  NE2       29.6600   14.5460  101.5980 N.am  325  GLN325     -0.0878
    140  N         33.7160   20.5850  102.3220 N.3   327  PHE327     -0.1241
    141  CA        32.9130   21.7630  102.6340 C.3   327  PHE327      0.1605
    142  C         33.6700   23.0630  102.8410 C.2   327  PHE327      0.2264
    143  O         33.0590   24.1290  102.9380 O.2   327  PHE327     -0.2867
    144  CB        32.0080   21.4310  103.8240 C.3   327  PHE327      0.0534
    145  CG        31.0650   20.2970  103.5340 C.ar  327  PHE327     -0.0203
    146  CD1       31.5600   19.0170  103.2860 C.ar  327  PHE327     -0.0042
    147  CD2       29.6930   20.5290  103.3850 C.ar  327  PHE327     -0.0042
    148  CE1       30.7120   17.9880  102.8850 C.ar  327  PHE327     -0.0003
    149  CE2       28.8270   19.5060  102.9830 C.ar  327  PHE327     -0.0003
    150  CZ        29.3410   18.2320  102.7300 C.ar  327  PHE327     -0.0000
@<TRIPOS>BOND
     1   131   132    1
     2   129   128   ar
     3   125   126    2
     4   125   124    1
     5   127   128    1
     6   127   124    1
     7   128   130   ar
     8   132   135    1
     9   132   133    1
    10   124   123    1
    11   135   136    1
    12   133   134    2
    13   123   114   am
    14   136   137    1
    15   138   137    2
    16   115   114    2
    17   137   139   am
    18   114   113    1
    19   116   113    1
    20   116   117    1
    21   140   141    1
    22   113   112    1
    23   141   142    1
    24   141   144    1
    25   150   148   ar
    26   150   149   ar
    27   142   143    2
    28   148   146   ar
    29   149   147   ar
    30   146   145   ar
    31   147   145   ar
    32   145   144    1
    33   117   119   ar
    34   117   118   ar
    35   119   121   ar
    36    95    93   ar
    37    95    96   ar
    38    93    91   ar
    39    97    96    1
    40    96    94   ar
    41   118   120   ar
    42   121   122   ar
    43    63    62    1
    44    64    62    1
    45    91    90    1
    46    91    92   ar
    47    90    87    1
    48    18    16   ar
    49    18    20   ar
    50    16    15   ar
    51    62    61    2
    52    89    88    2
    53    12    13    2
    54    12    11    1
    55    94    92   ar
    56   120   122   ar
    57    88    87    1
    58    20    19   ar
    59    14    15    1
    60    14    11    1
    61    15    17   ar
    62    11    10    1
    63    61    60    1
    64    87    86    1
    65   101   100    2
    66   104   103   ar
    67   104   106   ar
    68   102   103    1
    69   102    99    1
    70    60    59    1
    71   100    99    1
    72    19    17   ar
    73    83    85   ar
    74    83    81   ar
    75    85    84   ar
    76    40    39    2
    77   103   105   ar
    78    86    77   am
    79    99    98    1
    80   106   107   ar
    81    59    58    1
    82    43    42    2
    83    53    51   ar
    84    81    80   ar
    85    84    82   ar
    86    39    38    1
    87    39    45   am
    88    77    78    2
    89    77    76    1
    90    58    55    1
    91   105   107   ar
    92   105   108   ar
    93    41    38    1
    94    41    42    1
    95    38    37    1
    96   107   109   ar
    97    42    44   am
    98    50    51    1
    99    50    49    1
   100    75    76    1
   101    51    52   ar
   102    46    45    1
   103    46    49    1
   104    46    47    1
   105    54    55    1
   106    54    47   am
   107    82    80   ar
   108    80    79    1
   109     4     3    2
   110    76    79    1
   111    35    34    1
   112    55    56    1
   113   108   110   ar
   114    47    48    2
   115   109   111   ar
   116    72    74   ar
   117    72    70   ar
   118    74    73   ar
   119     5     6    1
   120     5     2    1
   121     3     2    1
   122     6     7    1
   123    36    34    1
   124     1     2    1
   125    56    57    2
   126    34    33    1
   127   110   111   ar
   128    70    69    1
   129    70    71   ar
   130    73    71   ar
   131    69    66    1
   132    33    30    1
   133     7     8    2
   134     7     9   am
   135    68    67    2
   136    32    31    2
   137    30    31    1
   138    30    29    1
   139    66    67    1
   140    66    65    1
   141    27    26   ar
   142    26    25    1
   143    26    28   ar
   144    25    22    1
   145    22    21    1
   146    22    23    1
   147    24    23    2
