@<TRIPOS>MOLECULE
tmp/2bvwB02.pdb
 157 153 0 0 0
SMALL
GASTEIGER

@<TRIPOS>ATOM
      1  N        -38.9520   45.3770  -32.0340 N.3    90  ASP90      -0.1239
      2  CA       -37.7540   46.2120  -32.2090 C.3    90  ASP90       0.1674
      3  C        -38.1340   47.5350  -32.8620 C.2    90  ASP90       0.2266
      4  O        -37.5000   47.9970  -33.7990 O.2    90  ASP90      -0.2867
      5  CB       -36.7890   45.4520  -33.1270 C.3    90  ASP90       0.1410
      6  CG       -35.3580   45.9640  -33.0350 C.2    90  ASP90       0.3668
      7  OD1      -34.9630   46.4960  -31.9760 O.co2  90  ASP90      -0.2456
      8  OD2      -34.6240   45.8190  -34.0310 O.co2  90  ASP90      -0.2456
      9  N        -37.7040   50.7370  -32.3480 N.3    92  ALA92      -0.1231
     10  CA       -36.8090   51.8610  -32.5520 C.3    92  ALA92       0.1694
     11  C        -35.5970   51.5010  -33.4030 C.2    92  ALA92       0.2591
     12  O        -34.6750   52.3230  -33.4770 O.2    92  ALA92      -0.2718
     13  CB       -36.3270   52.3910  -31.1990 C.3    92  ALA92       0.0304
     14  N        -35.6070   50.3360  -34.0420 N.am   93  ALA93      -0.1980
     15  CA       -34.4720   49.9320  -34.8830 C.3    93  ALA93       0.1597
     16  C        -34.9310   49.1260  -36.0830 C.2    93  ALA93       0.2287
     17  O        -36.1230   48.8220  -36.1820 O.2    93  ALA93      -0.2864
     18  CB       -33.4850   49.1420  -34.0240 C.3    93  ALA93       0.0319
     19  N        -33.6770   43.9860  -36.0830 N.3    96  SER96      -0.1217
     20  CA       -34.3810   42.7960  -35.5860 C.3    96  SER96       0.1889
     21  C        -35.8820   42.8620  -35.7860 C.2    96  SER96       0.2288
     22  O        -36.6420   42.2450  -35.0320 O.2    96  SER96      -0.2866
     23  CB       -33.9550   42.5440  -34.1340 C.3    96  SER96       0.2089
     24  OG       -32.6600   41.9200  -34.1030 O.3    96  SER96      -0.2183
     25  N        -36.0470   44.6950  -24.9010 N.3   136  ASP136     -0.1239
     26  CA       -36.1450   46.0230  -25.4650 C.3   136  ASP136      0.1674
     27  C        -37.5390   46.6510  -25.5240 C.2   136  ASP136      0.2266
     28  O        -37.6430   47.8940  -25.6340 O.2   136  ASP136     -0.2867
     29  CB       -35.5930   46.0710  -26.8910 C.3   136  ASP136      0.1410
     30  CG       -34.1530   45.6290  -27.0530 C.2   136  ASP136      0.3668
     31  OD1      -33.3480   45.9150  -26.1570 O.co2 136  ASP136     -0.2456
     32  OD2      -33.8680   44.9730  -28.0740 O.co2 136  ASP136     -0.2456
     33  N        -38.1870   50.6380  -24.8550 N.3   140  ASN140     -0.1240
     34  CA       -38.5730   51.5350  -25.9400 C.3   140  ASN140      0.1653
     35  C        -39.8000   52.3740  -25.5600 C.2   140  ASN140      0.2266
     36  O        -39.9360   53.4830  -26.0650 O.2   140  ASN140     -0.2867
     37  CB       -38.8470   50.8130  -27.2550 C.3   140  ASN140      0.1155
     38  CG       -37.5930   50.4130  -28.0100 C.2   140  ASN140      0.2627
     39  OD1      -37.4980   49.3270  -28.6010 O.2   140  ASN140     -0.2716
     40  ND2      -36.6100   51.3000  -28.0180 N.am  140  ASN140     -0.0877
     41  N        -38.2230   55.5360  -23.3600 N.3   143  THR143     -0.1203
     42  CA       -37.5220   56.5820  -24.0910 C.3   143  THR143      0.1994
     43  C        -37.8860   56.8120  -25.5400 C.2   143  THR143      0.2617
     44  O        -37.4590   57.8430  -26.1210 O.2   143  THR143     -0.2717
     45  CB       -35.9910   56.3230  -24.0350 C.3   143  THR143      0.1784
     46  OG1      -35.6510   55.2390  -24.9190 O.3   143  THR143     -0.2211
     47  CG2      -35.5390   55.9650  -22.6260 C.3   143  THR143      0.0376
     48  N        -38.5440   55.8890  -26.2410 N.am  144  ASN144     -0.1974
     49  CA       -38.7700   56.0780  -27.6680 C.3   144  ASN144      0.1688
     50  C        -40.2120   56.2270  -28.0940 C.2   144  ASN144      0.2292
     51  O        -40.6090   55.8710  -29.2150 O.2   144  ASN144     -0.2864
     52  CB       -38.0930   54.9110  -28.4320 C.3   144  ASN144      0.1181
     53  CG       -36.5780   55.0550  -28.4000 C.2   144  ASN144      0.2629
     54  OD1      -35.8470   54.0990  -28.1130 O.2   144  ASN144     -0.2716
     55  ND2      -36.0850   56.2480  -28.6980 N.am  144  ASN144     -0.0877
     56  N        -30.5940   48.6650  -19.7870 N.3   181  HIS181     -0.1241
     57  CA       -29.2630   48.5420  -19.1920 C.3   181  HIS181      0.1621
     58  C        -28.8740   49.9040  -18.6150 C.2   181  HIS181      0.2264
     59  O        -29.6070   50.8720  -18.8610 O.2   181  HIS181     -0.2867
     60  CB       -28.2450   48.0620  -20.2330 C.3   181  HIS181      0.0745
     61  CG       -28.0690   48.8950  -21.4660 C.ar  181  HIS181      0.0817
     62  ND1      -27.1840   49.9490  -21.5790 N.ar  181  HIS181     -0.2268
     63  CD2      -28.6590   48.7830  -22.6780 C.ar  181  HIS181      0.1154
     64  CE1      -27.2540   50.4650  -22.7940 C.ar  181  HIS181      0.1986
     65  NE2      -28.1360   49.7600  -23.4850 N.ar  181  HIS181     -0.2212
     66  N        -26.7720   52.2050  -19.5050 N.3   183  GLY183     -0.1210
     67  CA       -26.6270   53.2520  -20.4990 C.3   183  GLY183      0.1956
     68  C        -27.8950   53.5700  -21.2740 C.2   183  GLY183      0.2611
     69  O        -27.8650   54.3130  -22.2650 O.2   183  GLY183     -0.2717
     70  N        -29.0150   52.9790  -20.8890 N.am  184  TRP184     -0.1976
     71  CA       -30.3030   53.2170  -21.5250 C.3   184  TRP184      0.1640
     72  C        -31.2100   53.8190  -20.4530 C.2   184  TRP184      0.2290
     73  O        -31.3990   55.0420  -20.4090 O.2   184  TRP184     -0.2864
     74  CB       -30.9290   51.9490  -22.1040 C.3   184  TRP184      0.0576
     75  CG       -32.1040   52.1250  -23.0160 C.ar  184  TRP184      0.0006
     76  CD1      -32.8120   53.3060  -23.1820 C.ar  184  TRP184      0.0946
     77  CD2      -32.7110   51.2010  -23.9080 C.ar  184  TRP184      0.0152
     78  NE1      -33.8160   53.1400  -24.1020 N.ar  184  TRP184     -0.2442
     79  CE2      -33.7930   51.8280  -24.5410 C.ar  184  TRP184      0.0810
     80  CE3      -32.4690   49.8340  -24.1730 C.ar  184  TRP184      0.0012
     81  CZ2      -34.6120   51.1790  -25.4670 C.ar  184  TRP184      0.0191
     82  CZ3      -33.2630   49.2020  -25.1110 C.ar  184  TRP184      0.0001
     83  CH2      -34.3240   49.8650  -25.7380 C.ar  184  TRP184      0.0015
     84  N        -29.6460   56.2300  -16.9360 N.3   187  TRP187     -0.1241
     85  CA       -29.4010   57.6800  -16.8750 C.3   187  TRP187      0.1605
     86  C        -30.3730   58.2890  -15.8880 C.2   187  TRP187      0.2264
     87  O        -31.5580   57.9540  -15.9000 O.2   187  TRP187     -0.2867
     88  CB       -29.6450   58.2270  -18.2800 C.3   187  TRP187      0.0550
     89  CG       -28.5120   57.9480  -19.2130 C.ar  187  TRP187      0.0003
     90  CD1      -28.4240   56.9330  -20.1140 C.ar  187  TRP187      0.0946
     91  CD2      -27.2970   58.7050  -19.3330 C.ar  187  TRP187      0.0152
     92  NE1      -27.2370   57.0050  -20.7930 N.ar  187  TRP187     -0.2442
     93  CE2      -26.5260   58.0850  -20.3300 C.ar  187  TRP187      0.0810
     94  CE3      -26.7870   59.8420  -18.6900 C.ar  187  TRP187      0.0012
     95  CZ2      -25.2700   58.5610  -20.7110 C.ar  187  TRP187      0.0191
     96  CZ3      -25.5400   60.3180  -19.0800 C.ar  187  TRP187      0.0001
     97  CH2      -24.7880   59.6780  -20.0760 C.ar  187  TRP187      0.0015
     98  N        -33.8270   59.0890  -17.0490 N.3   190  ASN190     -0.1240
     99  CA       -34.6480   57.9850  -17.5250 C.3   190  ASN190      0.1653
    100  C        -35.0630   56.9950  -16.4480 C.2   190  ASN190      0.2266
    101  O        -36.0550   56.2770  -16.6630 O.2   190  ASN190     -0.2867
    102  CB       -33.8670   57.1820  -18.5920 C.3   190  ASN190      0.1155
    103  CG       -33.6260   57.9690  -19.8640 C.2   190  ASN190      0.2627
    104  OD1      -34.2940   58.9680  -20.1480 O.2   190  ASN190     -0.2716
    105  ND2      -32.6590   57.5200  -20.6570 N.am  190  ASN190     -0.0877
    106  N        -29.3590   42.8220  -21.4740 N.3   218  VAL218     -0.1231
    107  CA       -29.5840   41.7930  -22.5110 C.3   218  VAL218      0.1692
    108  C        -29.1280   42.2950  -23.8770 C.2   218  VAL218      0.2592
    109  O        -29.5120   43.3640  -24.3430 O.2   218  VAL218     -0.2718
    110  CB       -31.0530   41.3430  -22.5580 C.3   218  VAL218      0.0266
    111  CG1      -31.3270   40.3930  -23.7140 C.3   218  VAL218      0.0020
    112  CG2      -31.4240   40.6540  -21.2390 C.3   218  VAL218      0.0020
    113  N        -28.2580   41.4920  -24.5280 N.am  219  ALA219     -0.1966
    114  CA       -27.6890   41.8590  -25.8080 C.3   219  ALA219      0.1728
    115  C        -26.8380   43.1200  -25.7570 C.2   219  ALA219      0.2616
    116  O        -26.5160   43.7240  -26.7810 O.2   219  ALA219     -0.2715
    117  CB       -28.7720   41.9330  -26.8810 C.3   219  ALA219      0.0334
    118  N        -26.3430   43.4840  -24.5740 N.am  220  ASN220     -0.1972
    119  CA       -25.4650   44.6530  -24.4520 C.3   220  ASN220      0.1688
    120  C        -24.1840   44.1820  -23.7750 C.2   220  ASN220      0.2292
    121  O        -23.9590   42.9690  -23.6450 O.2   220  ASN220     -0.2864
    122  CB       -26.1490   45.8220  -23.7570 C.3   220  ASN220      0.1181
    123  CG       -25.6730   47.1490  -24.3650 C.2   220  ASN220      0.2629
    124  OD1      -24.5350   47.5050  -24.0860 O.2   220  ASN220     -0.2716
    125  ND2      -26.4920   47.7190  -25.2290 N.am  220  ASN220     -0.0877
    126  N        -21.5930   55.1230  -26.1560 N.3   278  TRP278     -0.1227
    127  CA       -22.2940   54.0880  -25.3800 C.3   278  TRP278      0.1737
    128  C        -23.5300   53.5290  -26.0500 C.2   278  TRP278      0.2596
    129  O        -23.8880   52.3440  -25.8520 O.2   278  TRP278     -0.2718
    130  CB       -22.6770   54.7040  -24.0250 C.3   278  TRP278      0.0564
    131  CG       -22.7740   53.6980  -22.9140 C.ar  278  TRP278      0.0003
    132  CD1      -22.6490   52.3260  -22.9730 C.ar  278  TRP278      0.0946
    133  CD2      -23.0780   53.9960  -21.5440 C.ar  278  TRP278      0.0152
    134  NE1      -22.8350   51.7730  -21.7340 N.ar  278  TRP278     -0.2442
    135  CE2      -23.1090   52.7820  -20.8380 C.ar  278  TRP278      0.0810
    136  CE3      -23.3430   55.1860  -20.8520 C.ar  278  TRP278      0.0012
    137  CZ2      -23.3650   52.7050  -19.4700 C.ar  278  TRP278      0.0191
    138  CZ3      -23.6120   55.1040  -19.5020 C.ar  278  TRP278      0.0001
    139  CH2      -23.6060   53.8920  -18.8140 C.ar  278  TRP278      0.0015
    140  N        -24.1370   54.2930  -26.9570 N.am  279  GLY279     -0.1957
    141  CA       -25.3240   53.8840  -27.6810 C.3   279  GLY279      0.1869
    142  C        -25.0640   53.0130  -28.9040 C.2   279  GLY279      0.2309
    143  O        -25.9880   52.7110  -29.6660 O.2   279  GLY279     -0.2863
    144  N        -24.8190   49.8050  -30.0840 N.3   281  TRP281     -0.1241
    145  CA       -25.1600   48.4670  -29.6260 C.3   281  TRP281      0.1605
    146  C        -24.9230   47.3420  -30.6160 C.2   281  TRP281      0.2264
    147  O        -25.0680   46.1620  -30.2120 O.2   281  TRP281     -0.2867
    148  CB       -26.6740   48.4250  -29.2750 C.3   281  TRP281      0.0550
    149  CG       -27.5890   48.9620  -30.3440 C.ar  281  TRP281      0.0003
    150  CD1      -28.0850   50.2360  -30.3700 C.ar  281  TRP281      0.0946
    151  CD2      -28.1000   48.3140  -31.5060 C.ar  281  TRP281      0.0152
    152  NE1      -28.8740   50.4110  -31.4900 N.ar  281  TRP281     -0.2442
    153  CE2      -28.8850   49.2540  -32.2130 C.ar  281  TRP281      0.0810
    154  CE3      -27.9690   47.0190  -32.0290 C.ar  281  TRP281      0.0012
    155  CZ2      -29.5430   48.9220  -33.3910 C.ar  281  TRP281      0.0191
    156  CZ3      -28.6030   46.6990  -33.2220 C.ar  281  TRP281      0.0001
    157  CH2      -29.3650   47.6580  -33.9030 C.ar  281  TRP281      0.0015
@<TRIPOS>BOND
     1    17    16    2
     2    19    20    1
     3    16    15    1
     4    21    20    1
     5    21    22    2
     6    20    23    1
     7    15    14    1
     8    15    18    1
     9    23    24    1
    10    14    11   am
    11     8     6   ar
    12   157   155   ar
    13   157   156   ar
    14     4     3    2
    15    12    11    2
    16    11    10    1
    17   155   153   ar
    18   156   154   ar
    19     5     6    1
    20     5     2    1
    21     6     7   ar
    22     3     2    1
    23    10     9    1
    24    10    13    1
    25   153   151   ar
    26   153   152   ar
    27     2     1    1
    28   154   151   ar
    29   151   149   ar
    30   152   150   ar
    31   146   147    2
    32   146   145    1
    33   150   149   ar
    34   149   148    1
    35   144   145    1
    36   143   142    2
    37   145   148    1
    38    51    50    2
    39   142   141    1
    40    55    53   am
    41    39    38    2
    42    52    53    1
    43    52    49    1
    44    53    54    2
    45    50    49    1
    46    32    30   ar
    47    40    38   am
    48    38    37    1
    49   141   140    1
    50    49    48    1
    51    37    34    1
    52    30    29    1
    53    30    31   ar
    54   140   128   am
    55    29    26    1
    56   117   114    1
    57   116   115    2
    58    48    43   am
    59   126   127    1
    60    44    43    2
    61    36    35    2
    62   128   129    2
    63   128   127    1
    64    34    35    1
    65    34    33    1
    66   114   115    1
    67   114   113    1
    68   115   118   am
    69    83    81   ar
    70    83    82   ar
    71    28    27    2
    72    43    42    1
    73    27    26    1
    74    81    79   ar
    75    26    25    1
    76   127   130    1
    77   125   123   am
    78    82    80   ar
    79    46    45    1
    80   118   119    1
    81    79    78   ar
    82    79    77   ar
    83   113   108   am
    84   119   120    1
    85   119   122    1
    86   123   124    2
    87   123   122    1
    88   109   108    2
    89    80    77   ar
    90    78    76   ar
    91    42    45    1
    92    42    41    1
    93    45    47    1
    94   130   131    1
    95    77    75   ar
    96   108   107    1
    97   120   121    2
    98   111   110    1
    99    65    64   ar
   100    65    63   ar
   101    76    75   ar
   102    75    74    1
   103   132   131   ar
   104   132   134   ar
   105   131   133   ar
   106    64    62   ar
   107    63    61   ar
   108   110   107    1
   109   110   112    1
   110   107   106    1
   111    69    68    2
   112    74    71    1
   113   134   135   ar
   114    62    61   ar
   115   133   136   ar
   116   133   135   ar
   117    71    70    1
   118    71    72    1
   119    61    60    1
   120    68    70   am
   121    68    67    1
   122   136   138   ar
   123   135   137   ar
   124    92    93   ar
   125    92    90   ar
   126    95    93   ar
   127    95    97   ar
   128   105   103   am
   129    67    66    1
   130    72    73    2
   131    93    91   ar
   132    60    57    1
   133   104   103    2
   134    90    89   ar
   135    97    96   ar
   136   103   102    1
   137    56    57    1
   138   138   139   ar
   139   137   139   ar
   140    91    89   ar
   141    91    94   ar
   142    89    88    1
   143    57    58    1
   144    96    94   ar
   145    59    58    2
   146   102    99    1
   147    88    85    1
   148    99    98    1
   149    99   100    1
   150    84    85    1
   151    85    86    1
   152   101   100    2
   153    87    86    2
