@<TRIPOS>MOLECULE
tmp/2bvxA01.pdb
 221 224 0 0 0
SMALL
GASTEIGER

@<TRIPOS>ATOM
      1  N          6.3280   -6.5950   16.9460 N.3    43  HIS43      -0.1241
      2  CA         6.3180   -7.9530   17.4770 C.3    43  HIS43       0.1621
      3  C          7.1800   -8.0880   18.7270 C.2    43  HIS43       0.2264
      4  O          7.6480   -9.1760   19.0570 O.2    43  HIS43      -0.2867
      5  CB         6.7790   -8.9600   16.4170 C.3    43  HIS43       0.0745
      6  CG         8.2060   -8.7980   16.0010 C.ar   43  HIS43       0.0817
      7  ND1        8.6420   -7.7440   15.2280 N.ar   43  HIS43      -0.2268
      8  CD2        9.2960   -9.5620   16.2440 C.ar   43  HIS43       0.1154
      9  CE1        9.9390   -7.8690   15.0090 C.ar   43  HIS43       0.1986
     10  NE2       10.3610   -8.9640   15.6150 N.ar   43  HIS43      -0.2212
     11  N          2.6300  -10.6140   19.8920 N.3    47  TYR47      -0.1241
     12  CA         2.8930  -11.7500   19.0230 C.3    47  TYR47       0.1605
     13  C          2.2020  -12.9760   19.6170 C.2    47  TYR47       0.2264
     14  O          2.8270  -13.7950   20.2980 O.2    47  TYR47      -0.2867
     15  CB         4.3930  -12.0020   18.8850 C.3    47  TYR47       0.0534
     16  CG         4.7160  -12.9210   17.7340 C.ar   47  TYR47      -0.0201
     17  CD1        4.2900  -12.6180   16.4420 C.ar   47  TYR47      -0.0009
     18  CD2        5.4400  -14.0930   17.9290 C.ar   47  TYR47      -0.0009
     19  CE1        4.5760  -13.4600   15.3700 C.ar   47  TYR47       0.0417
     20  CE2        5.7330  -14.9430   16.8650 C.ar   47  TYR47       0.0417
     21  CZ         5.2980  -14.6180   15.5890 C.ar   47  TYR47       0.1957
     22  OH         5.5880  -15.4410   14.5280 O.3    47  TYR47      -0.2866
     23  N          3.2890  -16.8060   20.3420 N.3    50  TRP50      -0.1241
     24  CA         4.1250  -17.1170   21.5010 C.3    50  TRP50       0.1605
     25  C          3.5320  -16.6240   22.8120 C.2    50  TRP50       0.2264
     26  O          4.2180  -16.6000   23.8360 O.2    50  TRP50      -0.2867
     27  CB         5.5140  -16.5000   21.3540 C.3    50  TRP50       0.0550
     28  CG         6.3470  -17.0920   20.2730 C.ar   50  TRP50       0.0003
     29  CD1        6.1840  -18.3120   19.6810 C.ar   50  TRP50       0.0946
     30  CD2        7.5270  -16.5210   19.7020 C.ar   50  TRP50       0.0152
     31  NE1        7.1940  -18.5360   18.7770 N.ar   50  TRP50      -0.2442
     32  CE2        8.0330  -17.4530   18.7710 C.ar   50  TRP50       0.0810
     33  CE3        8.2080  -15.3120   19.8880 C.ar   50  TRP50       0.0012
     34  CZ2        9.1920  -17.2160   18.0270 C.ar   50  TRP50       0.0191
     35  CZ3        9.3600  -15.0750   19.1490 C.ar   50  TRP50       0.0001
     36  CH2        9.8410  -16.0240   18.2280 C.ar   50  TRP50       0.0015
     37  N          0.5660   -9.9320   12.3300 N.3    92  TRP92      -0.1227
     38  CA         1.4330  -10.8800   13.0230 C.3    92  TRP92       0.1737
     39  C          1.0620  -12.3020   12.6510 C.2    92  TRP92       0.2595
     40  O          1.7450  -13.2490   13.0300 O.2    92  TRP92      -0.2718
     41  CB         1.2860  -10.7280   14.5310 C.3    92  TRP92       0.0564
     42  CG        -0.1370  -10.6670   14.9460 C.ar   92  TRP92       0.0003
     43  CD1       -0.9110   -9.5480   15.0420 C.ar   92  TRP92       0.0946
     44  CD2       -0.9900  -11.7740   15.2610 C.ar   92  TRP92       0.0152
     45  NE1       -2.1950   -9.8870   15.3950 N.ar   92  TRP92      -0.2442
     46  CE2       -2.2720  -11.2480   15.5360 C.ar   92  TRP92       0.0810
     47  CE3       -0.7970  -13.1600   15.3350 C.ar   92  TRP92       0.0012
     48  CZ2       -3.3590  -12.0580   15.8790 C.ar   92  TRP92       0.0191
     49  CZ3       -1.8810  -13.9670   15.6770 C.ar   92  TRP92       0.0001
     50  CH2       -3.1450  -13.4100   15.9440 C.ar   92  TRP92       0.0015
     51  N         -0.0300  -12.4500   11.9150 N.am   93  ARG93      -0.1966
     52  CA        -0.4990  -13.7670   11.5110 C.3    93  ARG93       0.1729
     53  C          0.1870  -14.3140   10.2680 C.2    93  ARG93       0.2616
     54  O          0.5050  -15.5010   10.2010 O.2    93  ARG93      -0.2715
     55  CB        -2.0060  -13.7310   11.2460 C.3    93  ARG93       0.0348
     56  CG        -2.8830  -13.5400   12.4650 C.3    93  ARG93       0.0492
     57  CD        -4.3210  -13.3000   12.0340 C.3    93  ARG93       0.2205
     58  NE        -5.2600  -13.4560   13.1390 N.pl3  93  ARG93      -0.0865
     59  CZ        -5.4990  -14.6090   13.7560 C.cat  93  ARG93       0.5346
     60  NH1       -4.8680  -15.7120   13.3780 N.pl3  93  ARG93       0.1354
     61  NH2       -6.3720  -14.6590   14.7520 N.pl3  93  ARG93       0.1354
     62  N          0.4190  -13.4500    9.2860 N.am   94  GLU94      -0.1963
     63  CA         1.0150  -13.8880    8.0320 C.3    94  GLU94       0.1733
     64  C          2.5020  -13.6180    7.8380 C.2    94  GLU94       0.2616
     65  O          3.2810  -14.5580    7.6880 O.2    94  GLU94      -0.2715
     66  CB         0.2390  -13.2780    6.8620 C.3    94  GLU94       0.0429
     67  CG         0.6480  -13.7640    5.4840 C.3    94  GLU94       0.1163
     68  CD         0.0870  -12.8840    4.3770 C.2    94  GLU94       0.3649
     69  OE1       -1.1420  -12.6510    4.3600 O.co2  94  GLU94      -0.2457
     70  OE2        0.8780  -12.4270    3.5230 O.co2  94  GLU94      -0.2457
     71  N          2.9000  -12.3460    7.8420 N.am   95  ASN95      -0.1958
     72  CA         4.3030  -12.0060    7.6070 C.3    95  ASN95       0.1819
     73  C          4.8420  -10.7950    8.3640 C.2    95  ASN95       0.2621
     74  O          5.7730  -10.1410    7.8990 O.2    95  ASN95      -0.2715
     75  CB         4.5060  -11.7870    6.1090 C.3    95  ASN95       0.1195
     76  CG         3.5580  -10.7440    5.5440 C.2    95  ASN95       0.2630
     77  OD1        2.3660  -10.7460    5.8460 O.2    95  ASN95      -0.2716
     78  ND2        4.0830   -9.8540    4.7170 N.am   95  ASN95      -0.0877
     79  N          4.2720  -10.4980    9.5250 N.am   96  LEU96      -0.1977
     80  CA         4.7170   -9.3540   10.3150 C.3    96  LEU96       0.1596
     81  C          4.7730   -8.0800    9.4800 C.2    96  LEU96       0.2287
     82  O          5.7890   -7.3870    9.4640 O.2    96  LEU96      -0.2864
     83  CB         6.0990   -9.6220   10.9140 C.3    96  LEU96       0.0297
     84  CG         6.1800  -10.5940   12.0930 C.3    96  LEU96       0.0022
     85  CD1        7.6350  -10.8790   12.4230 C.3    96  LEU96       0.0001
     86  CD2        5.4670   -9.9960   13.2920 C.3    96  LEU96       0.0001
     87  N          8.2750  -16.2940    2.2340 N.3   174  ILE174     -0.1245
     88  CA         7.2900  -15.3420    2.7400 C.3   174  ILE174      0.1561
     89  C          6.9480  -14.2870    1.6950 C.2   174  ILE174      0.2260
     90  O          7.7750  -13.9350    0.8540 O.2   174  ILE174     -0.2867
     91  CB         7.8190  -14.6050    3.9830 C.3   174  ILE174      0.0252
     92  CG1        8.1920  -15.6110    5.0650 C.3   174  ILE174      0.0019
     93  CG2        6.7690  -13.6420    4.5070 C.3   174  ILE174      0.0019
     94  CD1        8.9040  -14.9820    6.2170 C.3   174  ILE174      0.0001
     95  N         25.2230   -9.2990   10.0610 N.3   194  ASP194     -0.1225
     96  CA        23.7850   -9.5370   10.1110 C.3   194  ASP194      0.1805
     97  C         23.2420   -9.1740   11.4860 C.2   194  ASP194      0.2598
     98  O         24.0010   -9.0180   12.4460 O.2   194  ASP194     -0.2718
     99  CB        23.4780  -11.0160    9.8070 C.3   194  ASP194      0.1424
    100  CG        22.0010  -11.2710    9.5310 C.2   194  ASP194      0.3668
    101  OD1       21.4290  -10.5430    8.6970 O.co2 194  ASP194     -0.2456
    102  OD2       21.4130  -12.2030   10.1280 O.co2 194  ASP194     -0.2456
    103  N         21.9240   -9.0160   11.5640 N.am  195  ALA195     -0.1966
    104  CA        21.2630   -8.7150   12.8250 C.3   195  ALA195      0.1728
    105  C         21.1670  -10.0870   13.4700 C.2   195  ALA195      0.2616
    106  O         21.9100  -10.9870   13.0850 O.2   195  ALA195     -0.2715
    107  CB        19.8760   -8.1380   12.5720 C.3   195  ALA195      0.0334
    108  N         20.2680  -10.2690   14.4290 N.am  196  CYS196     -0.1954
    109  CA        20.1420  -11.5720   15.0730 C.3   196  CYS196      0.1843
    110  C         19.2060  -11.5310   16.2640 C.2   196  CYS196      0.2625
    111  O         18.8100  -10.4550   16.7090 O.2   196  CYS196     -0.2714
    112  CB        21.5150  -12.0710   15.5280 C.3   196  CYS196      0.0997
    113  SG        21.5360  -13.8330   15.9630 S.3   196  CYS196     -0.0797
    114  N         18.8560  -12.7060   16.7800 N.am  197  GLU197     -0.1963
    115  CA        17.9610  -12.7870   17.9260 C.3   197  GLU197      0.1733
    116  C         18.4940  -11.8620   19.0080 C.2   197  GLU197      0.2616
    117  O         19.5920  -12.0690   19.5200 O.2   197  GLU197     -0.2715
    118  CB        17.8810  -14.2270   18.4530 C.3   197  GLU197      0.0429
    119  CG        17.2110  -15.2200   17.5000 C.3   197  GLU197      0.1163
    120  CD        17.0970  -16.6230   18.0840 C.2   197  GLU197      0.3649
    121  OE1       18.1440  -17.2380   18.3820 O.co2 197  GLU197     -0.2457
    122  OE2       15.9550  -17.1070   18.2430 O.co2 197  GLU197     -0.2457
    123  N         17.7180  -10.8320   19.3360 N.am  198  GLY198     -0.1955
    124  CA        18.1300   -9.8780   20.3510 C.3   198  GLY198      0.1869
    125  C         18.3430   -8.4820   19.7920 C.2   198  GLY198      0.2309
    126  O         18.8360   -7.5940   20.4870 O.2   198  GLY198     -0.2863
    127  N         15.6990   -7.1160   17.7310 N.3   200  SER200     -0.1217
    128  CA        14.3630   -6.6560   17.3600 C.3   200  SER200      0.1889
    129  C         14.1570   -5.2040   17.7670 C.2   200  SER200      0.2288
    130  O         14.5960   -4.7870   18.8360 O.2   200  SER200     -0.2866
    131  CB        13.2960   -7.5240   18.0270 C.3   200  SER200      0.2089
    132  OG        13.4640   -8.8880   17.6860 O.3   200  SER200     -0.2183
    133  N         14.6600   -3.1390   12.7500 N.3   220  VAL220     -0.1231
    134  CA        14.9390   -4.5690   12.8220 C.3   220  VAL220      0.1692
    135  C         13.6400   -5.3060   13.0890 C.2   220  VAL220      0.2593
    136  O         13.0060   -5.0980   14.1210 O.2   220  VAL220     -0.2718
    137  CB        15.9190   -4.8980   13.9630 C.3   220  VAL220      0.0266
    138  CG1       16.0620   -6.4070   14.1050 C.3   220  VAL220      0.0020
    139  CG2       17.2680   -4.2570   13.6880 C.3   220  VAL220      0.0020
    140  N         13.2380   -6.1630   12.1590 N.am  221  SER221     -0.1938
    141  CA        11.9940   -6.8970   12.3270 C.3   221  SER221      0.2055
    142  C         12.1890   -8.3960   12.4570 C.2   221  SER221      0.2643
    143  O         12.2980   -8.9250   13.5660 O.2   221  SER221     -0.2714
    144  CB        11.0480   -6.6080   11.1590 C.3   221  SER221      0.2130
    145  OG         9.8150   -7.2920   11.3260 O.3   221  SER221     -0.2179
    146  N         12.2370   -9.0830   11.3220 N.am  222  TRP222     -0.1959
    147  CA        12.3910  -10.5290   11.3350 C.3   222  TRP222      0.1771
    148  C         13.5170  -11.0260   10.4440 C.2   222  TRP222      0.2620
    149  O         13.9410  -10.3450    9.5110 O.2   222  TRP222     -0.2715
    150  CB        11.0830  -11.1930   10.9060 C.3   222  TRP222      0.0590
    151  CG        10.6500  -10.8110    9.5320 C.ar  222  TRP222      0.0006
    152  CD1        9.9320   -9.7060    9.1770 C.ar  222  TRP222      0.0946
    153  CD2       10.9340  -11.5150    8.3170 C.ar  222  TRP222      0.0152
    154  NE1        9.7510   -9.6770    7.8150 N.ar  222  TRP222     -0.2442
    155  CE2       10.3560  -10.7760    7.2630 C.ar  222  TRP222      0.0810
    156  CE3       11.6230  -12.6960    8.0160 C.ar  222  TRP222      0.0012
    157  CZ2       10.4430  -11.1810    5.9270 C.ar  222  TRP222      0.0191
    158  CZ3       11.7100  -13.1000    6.6840 C.ar  222  TRP222      0.0001
    159  CH2       11.1220  -12.3420    5.6580 C.ar  222  TRP222      0.0015
    160  N         13.9910  -12.2290   10.7400 N.am  223  GLY223     -0.1940
    161  CA        15.0600  -12.8130    9.9580 C.3   223  GLY223      0.2014
    162  C         14.9240  -14.3170    9.8460 C.2   223  GLY223      0.2639
    163  O         14.0780  -14.9250   10.5050 O.2   223  GLY223     -0.2714
    164  N         15.7550  -14.9180    9.0020 N.am  224  GLU224     -0.1963
    165  CA        15.7420  -16.3620    8.7980 C.3   224  GLU224      0.1733
    166  C         17.1570  -16.8980    8.9910 C.2   224  GLU224      0.2617
    167  O         17.8530  -17.2230    8.0280 O.2   224  GLU224     -0.2715
    168  CB        15.2230  -16.6890    7.3930 C.3   224  GLU224      0.0429
    169  CG        13.7950  -16.2130    7.1460 C.3   224  GLU224      0.1163
    170  CD        13.2680  -16.6060    5.7770 C.2   224  GLU224      0.3649
    171  OE1       13.9250  -16.2710    4.7680 O.co2 224  GLU224     -0.2457
    172  OE2       12.1950  -17.2450    5.7080 O.co2 224  GLU224     -0.2457
    173  N         17.5730  -16.9790   10.2500 N.am  225  GLY225     -0.1940
    174  CA        18.9080  -17.4450   10.5600 C.3   225  GLY225      0.2014
    175  C         19.8650  -16.2680   10.5930 C.2   225  GLY225      0.2639
    176  O         19.8620  -15.4170    9.7030 O.2   225  GLY225     -0.2714
    177  N         20.6920  -16.2120   11.6260 N.am  226  CYS226     -0.1967
    178  CA        21.6530  -15.1290   11.7590 C.3   226  CYS226      0.1712
    179  C         22.8750  -15.3340   10.8700 C.2   226  CYS226      0.2296
    180  O         23.5820  -16.3340   10.9870 O.2   226  CYS226     -0.2864
    181  CB        22.0800  -15.0010   13.2190 C.3   226  CYS226      0.0983
    182  SG        20.6810  -14.7020   14.3420 S.3   226  CYS226     -0.0798
    183  N         18.8050  -12.7790    4.0730 N.3   232  TYR232     -0.1227
    184  CA        19.0160  -11.4220    4.5530 C.3   232  TYR232      0.1736
    185  C         18.0220  -11.0360    5.6440 C.2   232  TYR232      0.2596
    186  O         16.9900  -11.6820    5.8200 O.2   232  TYR232     -0.2718
    187  CB        18.8790  -10.4470    3.3880 C.3   232  TYR232      0.0548
    188  CG        19.5280  -10.9170    2.1060 C.ar  232  TYR232     -0.0200
    189  CD1       20.9120  -11.0710    2.0100 C.ar  232  TYR232     -0.0009
    190  CD2       18.7560  -11.2040    0.9820 C.ar  232  TYR232     -0.0009
    191  CE1       21.5070  -11.4970    0.8230 C.ar  232  TYR232      0.0417
    192  CE2       19.3390  -11.6300   -0.2050 C.ar  232  TYR232      0.0417
    193  CZ        20.7120  -11.7740   -0.2790 C.ar  232  TYR232      0.1957
    194  OH        21.2890  -12.1880   -1.4550 O.3   232  TYR232     -0.2866
    195  N         18.3390   -9.9720    6.3740 N.am  233  GLY233     -0.1942
    196  CA        17.4520   -9.5080    7.4230 C.3   233  GLY233      0.2014
    197  C         16.4180   -8.5570    6.8480 C.2   233  GLY233      0.2639
    198  O         16.6590   -7.9120    5.8270 O.2   233  GLY233     -0.2714
    199  N         15.2630   -8.4660    7.4970 N.am  234  PHE234     -0.1959
    200  CA        14.1940   -7.5920    7.0310 C.3   234  PHE234      0.1771
    201  C         13.8390   -6.5230    8.0520 C.2   234  PHE234      0.2619
    202  O         13.6690   -6.8100    9.2350 O.2   234  PHE234     -0.2715
    203  CB        12.9570   -8.4240    6.6860 C.3   234  PHE234      0.0574
    204  CG        13.1380   -9.2840    5.4720 C.ar  234  PHE234     -0.0200
    205  CD1       14.0850  -10.3000    5.4590 C.ar  234  PHE234     -0.0042
    206  CD2       12.3960   -9.0480    4.3230 C.ar  234  PHE234     -0.0042
    207  CE1       14.2920  -11.0670    4.3180 C.ar  234  PHE234     -0.0003
    208  CE2       12.5960   -9.8090    3.1760 C.ar  234  PHE234     -0.0003
    209  CZ        13.5450  -10.8190    3.1720 C.ar  234  PHE234     -0.0000
    210  N         13.7210   -5.2870    7.5850 N.am  235  TYR235     -0.1974
    211  CA        13.4000   -4.1790    8.4690 C.3   235  TYR235      0.1639
    212  C         12.1140   -3.4900    8.0280 C.2   235  TYR235      0.2290
    213  O         11.7080   -3.6000    6.8720 O.2   235  TYR235     -0.2864
    214  CB        14.5500   -3.1660    8.4770 C.3   235  TYR235      0.0560
    215  CG        15.9270   -3.7970    8.4700 C.ar  235  TYR235     -0.0198
    216  CD1       16.4520   -4.3560    7.3050 C.ar  235  TYR235     -0.0009
    217  CD2       16.6880   -3.8760    9.6360 C.ar  235  TYR235     -0.0009
    218  CE1       17.6930   -4.9840    7.3020 C.ar  235  TYR235      0.0417
    219  CE2       17.9330   -4.5040    9.6420 C.ar  235  TYR235      0.0417
    220  CZ        18.4230   -5.0570    8.4730 C.ar  235  TYR235      0.1957
    221  OH        19.6310   -5.7060    8.4800 O.3   235  TYR235     -0.2866
@<TRIPOS>BOND
     1   194   193    1
     2   193   192   ar
     3   193   191   ar
     4   192   190   ar
     5   191   189   ar
     6    90    89    2
     7   190   188   ar
     8    89    88    1
     9   189   188   ar
    10   188   187    1
    11    87    88    1
    12    88    91    1
    13   209   208   ar
    14   209   207   ar
    15   208   206   ar
    16   187   184    1
    17    70    68   ar
    18    91    93    1
    19    91    92    1
    20   183   184    1
    21   207   205   ar
    22   206   204   ar
    23    69    68   ar
    24    68    67    1
    25   184   185    1
    26    78    76   am
    27   171   170   ar
    28    92    94    1
    29   205   204   ar
    30   204   203    1
    31    67    66    1
    32    76    77    2
    33    76    75    1
    34   185   186    2
    35   185   195   am
    36   159   157   ar
    37   159   158   ar
    38   172   170   ar
    39   170   169    1
    40   198   197    2
    41   157   155   ar
    42    75    72    1
    43   195   196    1
    44   158   156   ar
    45   203   200    1
    46   197   196    1
    47   197   199   am
    48    66    63    1
    49   213   212    2
    50   200   199    1
    51   200   201    1
    52   169   168    1
    53   155   154   ar
    54   155   153   ar
    55   218   216   ar
    56   218   220   ar
    57   216   215   ar
    58   168   165    1
    59   210   201   am
    60   210   211    1
    61    72    71    1
    62    72    73    1
    63    65    64    2
    64   154   152   ar
    65    64    71   am
    66    64    63    1
    67    74    73    2
    68   156   153   ar
    69   167   166    2
    70   212   211    1
    71    63    62    1
    72   201   202    2
    73   153   151   ar
    74    73    79   am
    75   211   214    1
    76   215   214    1
    77   215   217   ar
    78   220   221    1
    79   220   219   ar
    80   101   100   ar
    81   165   166    1
    82   165   164    1
    83   166   173   am
    84   164   162   am
    85   152   151   ar
    86    62    53   am
    87    82    81    2
    88    81    80    1
    89   149   148    2
    90    79    80    1
    91   100    99    1
    92   100   102   ar
    93   151   150    1
    94   217   219   ar
    95   176   175    2
    96    99    96    1
    97   162   161    1
    98   162   163    2
    99   161   160    1
   100    95    96    1
   101    96    97    1
   102    54    53    2
   103   173   174    1
   104    53    52    1
   105    80    83    1
   106   148   160   am
   107   148   147    1
   108   174   175    1
   109   175   177   am
   110   179   180    2
   111   179   178    1
   112   150   147    1
   113    83    84    1
   114   144   145    1
   115   144   141    1
   116    55    52    1
   117    55    56    1
   118   146   147    1
   119   146   142   am
   120    97   103   am
   121    97    98    2
   122    52    51    1
   123   103   104    1
   124   177   178    1
   125   178   181    1
   126    51    39   am
   127    57    56    1
   128    57    58    1
   129    84    85    1
   130    84    86    1
   131   140   141    1
   132   140   135   am
   133   141   142    1
   134    37    38    1
   135   142   143    2
   136   107   104    1
   137    39    38    1
   138    39    40    2
   139   133   134    1
   140   134   135    1
   141   134   137    1
   142   104   105    1
   143    38    41    1
   144   106   105    2
   145   135   136    2
   146    58    59    2
   147   181   182    1
   148    60    59    1
   149   105   108   am
   150   139   137    1
   151    59    61    1
   152   137   138    1
   153   182   113    1
   154   108   109    1
   155    22    21    1
   156    41    42    1
   157    42    43   ar
   158    42    44   ar
   159     9     7   ar
   160     9    10   ar
   161    43    45   ar
   162   109   112    1
   163   109   110    1
   164     7     6   ar
   165    44    47   ar
   166    44    46   ar
   167    47    49   ar
   168    19    21   ar
   169    19    17   ar
   170    45    46   ar
   171   112   113    1
   172    46    48   ar
   173    21    20   ar
   174    10     8   ar
   175    49    50   ar
   176    48    50   ar
   177     6     8   ar
   178     6     5    1
   179   110   111    2
   180   110   114   am
   181     5     2    1
   182    17    16   ar
   183   114   115    1
   184    20    18   ar
   185     1     2    1
   186   128   127    1
   187   128   129    1
   188   128   131    1
   189     2     3    1
   190   119   120    1
   191   119   118    1
   192   132   131    1
   193    16    18   ar
   194    16    15    1
   195   129   130    2
   196   115   118    1
   197   115   116    1
   198    34    36   ar
   199    34    32   ar
   200   120   122   ar
   201   120   121   ar
   202    36    35   ar
   203     3     4    2
   204    32    31   ar
   205    32    30   ar
   206    31    29   ar
   207    15    12    1
   208   116   123   am
   209   116   117    2
   210    12    13    1
   211    12    11    1
   212    35    33   ar
   213   123   124    1
   214    13    14    2
   215    29    28   ar
   216    30    33   ar
   217    30    28   ar
   218   125   124    1
   219   125   126    2
   220    28    27    1
   221    23    24    1
   222    27    24    1
   223    24    25    1
   224    25    26    2
