@<TRIPOS>MOLECULE
tmp/2bw7B03.pdb
 99 92 0 0 0
SMALL
GASTEIGER

@<TRIPOS>ATOM
      1  N         -7.7130   -2.2600   18.1160 N.3    12  PHE12      -0.1241
      2  CA        -7.3260   -1.7570   16.8060 C.3    12  PHE12       0.1605
      3  C         -8.5450   -1.2060   16.0740 C.2    12  PHE12       0.2264
      4  O         -9.5000   -1.9390   15.8190 O.2    12  PHE12      -0.2867
      5  CB        -6.7220   -2.8820   15.9720 C.3    12  PHE12       0.0534
      6  CG        -5.3860   -2.5520   15.3810 C.ar   12  PHE12      -0.0203
      7  CD1       -4.2190   -2.7960   16.0950 C.ar   12  PHE12      -0.0042
      8  CD2       -5.2920   -2.0020   14.1060 C.ar   12  PHE12      -0.0042
      9  CE1       -2.9740   -2.4980   15.5510 C.ar   12  PHE12      -0.0003
     10  CE2       -4.0490   -1.6980   13.5500 C.ar   12  PHE12      -0.0003
     11  CZ        -2.8880   -1.9480   14.2760 C.ar   12  PHE12      -0.0000
     12  N         -9.9900    1.2050   12.6800 N.3    14  ASP14      -0.1239
     13  CA        -9.6050    1.6090   11.3370 C.3    14  ASP14       0.1674
     14  C        -10.8100    2.1140   10.5460 C.2    14  ASP14       0.2266
     15  O        -11.8830    1.5100   10.5820 O.2    14  ASP14      -0.2867
     16  CB        -8.9570    0.4130   10.6330 C.3    14  ASP14       0.1410
     17  CG        -8.4820    0.7370    9.2390 C.2    14  ASP14       0.3668
     18  OD1       -8.1710    1.9160    8.9720 O.co2  14  ASP14      -0.2456
     19  OD2       -8.3970   -0.1990    8.4160 O.co2  14  ASP14      -0.2456
     20  N         -1.6360    4.8960   12.5130 N.3    56  VAL56      -0.1245
     21  CA        -1.0160    4.3540   11.3180 C.3    56  VAL56       0.1561
     22  C         -2.0080    4.7000   10.2250 C.2    56  VAL56       0.2260
     23  O         -2.7940    3.8620    9.7840 O.2    56  VAL56      -0.2867
     24  CB        -0.8310    2.8190   11.3990 C.3    56  VAL56       0.0252
     25  CG1       -0.1780    2.3110   10.1230 C.3    56  VAL56       0.0019
     26  CG2        0.0290    2.4570   12.6040 C.3    56  VAL56       0.0019
     27  N         -5.2620    6.0460    9.0820 N.3    58  ASP58      -0.1225
     28  CA        -6.5670    6.2490    9.6910 C.3    58  ASP58       0.1805
     29  C         -6.8220    5.1320   10.6960 C.2    58  ASP58       0.2597
     30  O         -7.9570    4.8960   11.1050 O.2    58  ASP58      -0.2718
     31  CB        -7.6460    6.2400    8.6110 C.3    58  ASP58       0.1424
     32  CG        -7.7270    4.9130    7.8880 C.2    58  ASP58       0.3668
     33  OD1       -6.6650    4.3810    7.5060 O.co2  58  ASP58      -0.2456
     34  OD2       -8.8490    4.4050    7.6940 O.co2  58  ASP58      -0.2456
     35  N         -5.7550    4.4430   11.0870 N.am   59  ALA59      -0.1979
     36  CA        -5.8680    3.3530   12.0410 C.3    59  ALA59       0.1597
     37  C         -5.2990    3.7540   13.3960 C.2    59  ALA59       0.2287
     38  O         -4.3600    4.5460   13.4840 O.2    59  ALA59      -0.2864
     39  CB        -5.1520    2.1190   11.5140 C.3    59  ALA59       0.0319
     40  N        -13.9350    0.0320   11.5820 N.3   111  ARG111     -0.1245
     41  CA       -13.9640   -1.3210   12.1190 C.3   111  ARG111      0.1563
     42  C        -13.1280   -1.3080   13.3880 C.2   111  ARG111      0.2260
     43  O        -12.2620   -0.4530   13.5610 O.2   111  ARG111     -0.2867
     44  CB       -13.3560   -2.3170   11.1340 C.3   111  ARG111      0.0307
     45  CG       -13.7890   -2.1380    9.6960 C.3   111  ARG111      0.0489
     46  CD       -13.1920   -3.2240    8.8180 C.3   111  ARG111      0.2205
     47  NE       -13.0240   -2.7720    7.4420 N.pl3 111  ARG111     -0.0865
     48  CZ       -12.0810   -1.9220    7.0440 C.cat 111  ARG111      0.5346
     49  NH1      -11.2110   -1.4310    7.9180 N.pl3 111  ARG111      0.1354
     50  NH2      -12.0100   -1.5580    5.7710 N.pl3 111  ARG111      0.1354
     51  N         -0.8160   -8.5340   18.3780 N.3   139  VAL139     -0.1231
     52  CA        -1.1410   -7.3210   17.6390 C.3   139  VAL139      0.1692
     53  C         -1.6960   -7.6350   16.2570 C.2   139  VAL139      0.2592
     54  O         -2.6370   -6.9890   15.7930 O.2   139  VAL139     -0.2718
     55  CB         0.0840   -6.4050   17.4620 C.3   139  VAL139      0.0266
     56  CG1       -0.3340   -5.1550   16.7120 C.3   139  VAL139      0.0020
     57  CG2        0.6730   -6.0390   18.8140 C.3   139  VAL139      0.0020
     58  N         -1.1030   -8.6220   15.5950 N.am  140  ASN140     -0.1974
     59  CA        -1.5630   -9.0100   14.2710 C.3   140  ASN140      0.1688
     60  C         -3.0130   -9.4550   14.4030 C.2   140  ASN140      0.2292
     61  O         -3.8860   -8.9950   13.6650 O.2   140  ASN140     -0.2864
     62  CB        -0.7150  -10.1600   13.7260 C.3   140  ASN140      0.1181
     63  CG        -1.1460  -10.5970   12.3380 C.2   140  ASN140      0.2629
     64  OD1       -1.3270  -11.7860   12.0790 O.2   140  ASN140     -0.2716
     65  ND2       -1.3050   -9.6390   11.4370 N.am  140  ASN140     -0.0877
     66  N         -5.4630   -6.5770   14.7840 N.3   143  ALA143     -0.1231
     67  CA        -5.6130   -5.8680   13.5230 C.3   143  ALA143      0.1694
     68  C         -6.3960   -6.6950   12.5070 C.2   143  ALA143      0.2591
     69  O         -7.2740   -6.1710   11.8170 O.2   143  ALA143     -0.2718
     70  CB        -4.2480   -5.5200   12.9670 C.3   143  ALA143      0.0304
     71  N         -6.0790   -7.9850   12.4160 N.am  144  ARG144     -0.1980
     72  CA        -6.7590   -8.8670   11.4730 C.3   144  ARG144      0.1597
     73  C         -8.2370   -8.9610   11.8350 C.2   144  ARG144      0.2287
     74  O         -9.0990   -8.9270   10.9570 O.2   144  ARG144     -0.2864
     75  CB        -6.1280  -10.2590   11.4880 C.3   144  ARG144      0.0334
     76  CG        -4.6030  -10.2580   11.4600 C.3   144  ARG144      0.0492
     77  CD        -3.9790  -10.3710   10.0740 C.3   144  ARG144      0.2205
     78  NE        -4.2460   -9.2470    9.1820 N.pl3 144  ARG144     -0.0865
     79  CZ        -3.3840   -8.8140    8.2640 C.cat 144  ARG144      0.5346
     80  NH1       -2.2020   -9.4030    8.1320 N.pl3 144  ARG144      0.1354
     81  NH2       -3.7080   -7.8120    7.4560 N.pl3 144  ARG144      0.1354
     82  N         -9.8620   -6.7840   13.1440 N.3   146  GLN146     -0.1231
     83  CA       -10.3610   -5.4790   12.7350 C.3   146  GLN146      0.1698
     84  C        -10.7440   -5.4540   11.2570 C.2   146  GLN146      0.2592
     85  O        -11.7480   -4.8500   10.8780 O.2   146  GLN146     -0.2718
     86  CB        -9.2930   -4.4180   13.0370 C.3   146  GLN146      0.0381
     87  CG        -9.6070   -3.0210   12.5490 C.3   146  GLN146      0.0905
     88  CD        -9.2130   -2.8060   11.1030 C.2   146  GLN146      0.2608
     89  OE1       -8.0300   -2.8400   10.7590 O.2   146  GLN146     -0.2717
     90  NE2      -10.2040   -2.5820   10.2450 N.am  146  GLN146     -0.0878
     91  N         -9.9550   -6.1290   10.4290 N.am  147  GLU147     -0.1979
     92  CA       -10.2020   -6.1640    8.9930 C.3   147  GLU147      0.1602
     93  C        -11.3040   -7.1220    8.5400 C.2   147  GLU147      0.2287
     94  O        -11.8600   -6.9600    7.4530 O.2   147  GLU147     -0.2864
     95  CB        -8.9140   -6.5250    8.2590 C.3   147  GLU147      0.0415
     96  CG        -7.7630   -5.5870    8.5260 C.3   147  GLU147      0.1163
     97  CD        -6.4900   -6.0680    7.8800 C.2   147  GLU147      0.3649
     98  OE1       -6.1200   -7.2370    8.1150 O.co2 147  GLU147     -0.2457
     99  OE2       -5.8590   -5.2820    7.1410 O.co2 147  GLU147     -0.2457
@<TRIPOS>BOND
     1    50    48    1
     2    48    47    2
     3    48    49    1
     4    99    97   ar
     5    47    46    1
     6    94    93    2
     7    81    79    1
     8    33    32   ar
     9    34    32   ar
    10    97    98   ar
    11    97    96    1
    12    32    31    1
    13    80    79    1
    14    95    96    1
    15    95    92    1
    16    79    78    2
    17    19    17   ar
    18    93    92    1
    19    31    28    1
    20    46    45    1
    21    18    17   ar
    22    92    91    1
    23    27    28    1
    24    78    77    1
    25    17    16    1
    26    28    29    1
    27    45    44    1
    28    23    22    2
    29    77    76    1
    30    25    24    1
    31    22    21    1
    32    90    88   am
    33    91    84   am
    34    14    15    2
    35    14    13    1
    36    16    13    1
    37    29    35   am
    38    29    30    2
    39    89    88    2
    40    85    84    2
    41    74    73    2
    42    35    36    1
    43    88    87    1
    44    44    41    1
    45    84    83    1
    46    21    24    1
    47    21    20    1
    48    13    12    1
    49    24    26    1
    50    65    63   am
    51    76    75    1
    52    72    75    1
    53    72    73    1
    54    72    71    1
    55    39    36    1
    56    40    41    1
    57    69    68    2
    58    36    37    1
    59    64    63    2
    60    41    42    1
    61    63    62    1
    62    71    68   am
    63    68    67    1
    64    87    86    1
    65    83    86    1
    66    83    82    1
    67    70    67    1
    68    42    43    2
    69    37    38    2
    70    67    66    1
    71    10     8   ar
    72    10    11   ar
    73    61    60    2
    74    62    59    1
    75     8     6   ar
    76    59    60    1
    77    59    58    1
    78    11     9   ar
    79     6     5    1
    80     6     7   ar
    81     9     7   ar
    82    58    53   am
    83    54    53    2
    84     4     3    2
    85     5     2    1
    86     3     2    1
    87    53    52    1
    88    56    55    1
    89     2     1    1
    90    55    52    1
    91    55    57    1
    92    52    51    1
