@<TRIPOS>MOLECULE
tmp/2bwaA00.pdb
 167 168 0 0 0
SMALL
GASTEIGER

@<TRIPOS>ATOM
      1  N         21.9930   14.2310   16.5470 N.3     8  TRP8       -0.1241
      2  CA        20.6730   14.8100   16.8110 C.3     8  TRP8        0.1605
      3  C         19.9390   15.2140   15.5370 C.2     8  TRP8        0.2264
      4  O         19.0870   16.0930   15.5640 O.2     8  TRP8       -0.2867
      5  CB        20.8170   16.0440   17.7210 C.3     8  TRP8        0.0550
      6  CG        21.5150   15.7850   19.0330 C.ar    8  TRP8        0.0003
      7  CD1       22.7090   16.3210   19.4490 C.ar    8  TRP8        0.0946
      8  CD2       21.0640   14.9390   20.1020 C.ar    8  TRP8        0.0152
      9  NE1       23.0250   15.8580   20.7040 N.ar    8  TRP8       -0.2442
     10  CE2       22.0340   15.0070   21.1280 C.ar    8  TRP8        0.0810
     11  CE3       19.9330   14.1260   20.2910 C.ar    8  TRP8        0.0012
     12  CZ2       21.9110   14.2950   22.3300 C.ar    8  TRP8        0.0191
     13  CZ3       19.8110   13.4180   21.4940 C.ar    8  TRP8        0.0001
     14  CH2       20.7950   13.5110   22.4940 C.ar    8  TRP8        0.0015
     15  N         18.6320   10.4800   16.8700 N.3    23  ASN23      -0.1240
     16  CA        18.5860   10.3240   18.3140 C.3    23  ASN23       0.1653
     17  C         19.5790    9.3780   18.9760 C.2    23  ASN23       0.2266
     18  O         19.1930    8.4650   19.6960 O.2    23  ASN23      -0.2867
     19  CB        17.1210    9.9150   18.6390 C.3    23  ASN23       0.1155
     20  CG        16.7490   10.0680   20.1030 C.2    23  ASN23       0.2627
     21  OD1       17.2020   10.9770   20.7890 O.2    23  ASN23      -0.2716
     22  ND2       15.8850    9.1770   20.5830 N.am   23  ASN23      -0.0877
     23  N         21.2340    9.3430   21.6040 N.3    25  TRP25      -0.1241
     24  CA        21.2750   10.0220   22.8970 C.3    25  TRP25       0.1605
     25  C         22.1770    9.4810   23.9940 C.2    25  TRP25       0.2264
     26  O         22.5900   10.2460   24.8590 O.2    25  TRP25      -0.2867
     27  CB        19.8530   10.1610   23.4750 C.3    25  TRP25       0.0550
     28  CG        19.2010    8.8670   23.9170 C.ar   25  TRP25       0.0003
     29  CD1       18.3630    8.0740   23.1830 C.ar   25  TRP25       0.0946
     30  CD2       19.2900    8.2610   25.2140 C.ar   25  TRP25       0.0152
     31  NE1       17.9130    7.0150   23.9470 N.ar   25  TRP25      -0.2442
     32  CE2       18.4670    7.1040   25.1960 C.ar   25  TRP25       0.0810
     33  CE3       19.9820    8.5820   26.3930 C.ar   25  TRP25       0.0012
     34  CZ2       18.3160    6.2710   26.3100 C.ar   25  TRP25       0.0191
     35  CZ3       19.8320    7.7450   27.5090 C.ar   25  TRP25       0.0001
     36  CH2       19.0030    6.6030   27.4560 C.ar   25  TRP25       0.0015
     37  N         21.2850    1.8680   26.9350 N.3    55  VAL55      -0.1245
     38  CA        20.8760    2.1950   25.5730 C.3    55  VAL55       0.1561
     39  C         21.7890    3.2240   24.9290 C.2    55  VAL55       0.2260
     40  O         22.0940    4.2680   25.5240 O.2    55  VAL55      -0.2867
     41  CB        19.4170    2.7430   25.5370 C.3    55  VAL55       0.0252
     42  CG1       19.0590    3.2340   24.1310 C.3    55  VAL55       0.0019
     43  CG2       18.4600    1.6620   25.9760 C.3    55  VAL55       0.0019
     44  N         18.0330    5.6990   20.1480 N.3    58  TYR58      -0.1241
     45  CA        16.6520    5.3350   19.8670 C.3    58  TYR58       0.1605
     46  C         16.1900    6.0320   18.5830 C.2    58  TYR58       0.2264
     47  O         15.4410    7.0180   18.6230 O.2    58  TYR58      -0.2867
     48  CB        15.7370    5.6900   21.0490 C.3    58  TYR58       0.0534
     49  CG        14.2450    5.3730   20.8410 C.ar   58  TYR58      -0.0201
     50  CD1       13.8120    4.0750   20.5470 C.ar   58  TYR58      -0.0009
     51  CD2       13.2810    6.3750   20.9610 C.ar   58  TYR58      -0.0009
     52  CE1       12.4310    3.7780   20.3770 C.ar   58  TYR58       0.0417
     53  CE2       11.9040    6.0900   20.8040 C.ar   58  TYR58       0.0417
     54  CZ        11.4980    4.7940   20.5190 C.ar   58  TYR58       0.1957
     55  OH        10.1350    4.5070   20.4180 O.3    58  TYR58      -0.2866
     56  N          8.3100   16.1430   21.2020 N.3    66  HIS66      -0.1226
     57  CA         9.4580   15.4390   21.7670 C.3    66  HIS66       0.1752
     58  C         10.4180   16.5160   22.2730 C.2    66  HIS66       0.2596
     59  O         11.0280   17.2250   21.4700 O.2    66  HIS66      -0.2718
     60  CB        10.1580   14.6240   20.6660 C.3    66  HIS66       0.0759
     61  CG        11.3430   13.8620   21.1450 C.ar   66  HIS66       0.0818
     62  ND1       11.2350   12.6340   21.7630 N.ar   66  HIS66      -0.2268
     63  CD2       12.6680   14.1490   21.1030 C.ar   66  HIS66       0.1154
     64  CE1       12.4440   12.1980   22.0820 C.ar   66  HIS66       0.1986
     65  NE2       13.3300   13.1000   21.6920 N.ar   66  HIS66      -0.2212
     66  N         10.5300   16.6530   23.5930 N.am   67  TRP67      -0.1976
     67  CA        11.4210   17.6620   24.1680 C.3    67  TRP67       0.1640
     68  C         11.2300   19.0580   23.5630 C.2    67  TRP67       0.2290
     69  O         12.1960   19.7460   23.2150 O.2    67  TRP67      -0.2864
     70  CB        12.8800   17.1920   24.0480 C.3    67  TRP67       0.0576
     71  CG        13.3330   16.3990   25.2540 C.ar   67  TRP67       0.0006
     72  CD1       14.0360   16.8770   26.3320 C.ar   67  TRP67       0.0946
     73  CD2       13.0370   15.0240   25.5500 C.ar   67  TRP67       0.0152
     74  NE1       14.1870   15.8860   27.2750 N.ar   67  TRP67      -0.2442
     75  CE2       13.5850   14.7410   26.8220 C.ar   67  TRP67       0.0810
     76  CE3       12.3600   14.0060   24.8670 C.ar   67  TRP67       0.0012
     77  CZ2       13.4750   13.4780   27.4290 C.ar   67  TRP67       0.0191
     78  CZ3       12.2470   12.7460   25.4730 C.ar   67  TRP67       0.0001
     79  CH2       12.8040   12.4990   26.7420 C.ar   67  TRP67       0.0015
     80  N          7.4310    4.4390   22.3440 N.3   105  ASP105     -0.1239
     81  CA         7.8690    5.2310   23.5000 C.3   105  ASP105      0.1674
     82  C          6.8330    6.3650   23.5070 C.2   105  ASP105      0.2266
     83  O          6.7830    7.1570   22.5700 O.2   105  ASP105     -0.2867
     84  CB         9.2810    5.7730   23.2630 C.3   105  ASP105      0.1410
     85  CG        10.0560    6.0070   24.5640 C.2   105  ASP105      0.3668
     86  OD1        9.6810    5.4260   25.6090 O.co2 105  ASP105     -0.2456
     87  OD2       11.0580    6.7560   24.5410 O.co2 105  ASP105     -0.2456
     88  N          5.2150    9.5490   25.7530 N.3   107  TRP107     -0.1241
     89  CA         5.5300   10.4440   26.8740 C.3   107  TRP107      0.1605
     90  C          4.3830   11.2350   27.4510 C.2   107  TRP107      0.2264
     91  O          3.5840   11.7990   26.7080 O.2   107  TRP107     -0.2867
     92  CB         6.6080   11.4180   26.4280 C.3   107  TRP107      0.0550
     93  CG         7.8940   10.7670   26.1760 C.ar  107  TRP107      0.0003
     94  CD1        8.4400   10.4570   24.9500 C.ar  107  TRP107      0.0946
     95  CD2        8.8390   10.3440   27.1590 C.ar  107  TRP107      0.0152
     96  NE1        9.6760    9.8680   25.1220 N.ar  107  TRP107     -0.2442
     97  CE2        9.9440    9.7860   26.4670 C.ar  107  TRP107      0.0810
     98  CE3        8.8670   10.3830   28.5650 C.ar  107  TRP107      0.0012
     99  CZ2       11.0660    9.2680   27.1340 C.ar  107  TRP107      0.0191
    100  CZ3        9.9760    9.8690   29.2270 C.ar  107  TRP107      0.0001
    101  CH2       11.0650    9.3170   28.5110 C.ar  107  TRP107      0.0015
    102  N          6.5140    7.4660   31.1090 N.3   123  GLU123     -0.1245
    103  CA         7.0080    6.9880   29.8260 C.3   123  GLU123      0.1567
    104  C          6.3620    5.5990   29.6940 C.2   123  GLU123      0.2260
    105  O          6.5920    4.7020   30.5290 O.2   123  GLU123     -0.2867
    106  CB         8.5260    6.8400   29.8450 C.3   123  GLU123      0.0388
    107  CG         9.0990    6.2210   28.5610 C.3   123  GLU123      0.1160
    108  CD        10.5920    5.9430   28.6410 C.2   123  GLU123      0.3649
    109  OE1       11.2100    6.1380   29.7150 O.co2 123  GLU123     -0.2457
    110  OE2       11.1480    5.5170   27.6120 O.co2 123  GLU123     -0.2457
    111  N          6.0720    2.4030   27.3020 N.3   125  MET125     -0.1245
    112  CA         6.6450    1.7340   26.1310 C.3   125  MET125      0.1570
    113  C          5.7960    0.5080   25.7780 C.2   125  MET125      0.2261
    114  O          5.1440   -0.0890   26.6490 O.2   125  MET125     -0.2867
    115  CB         8.0670    1.2640   26.4200 C.3   125  MET125      0.0387
    116  CG         9.0640    2.3880   26.7830 C.3   125  MET125      0.0595
    117  SD        10.7530    1.8400   26.5490 S.3   125  MET125     -0.1393
    118  CE        10.8890    2.0900   24.7880 C.3   125  MET125      0.0692
    119  N         11.0030    5.7430   38.5470 N.3   158  TRP158     -0.1241
    120  CA        12.1410    6.6580   38.3830 C.3   158  TRP158      0.1605
    121  C         11.6910    8.1130   38.5280 C.2   158  TRP158      0.2264
    122  O         10.6670    8.3860   39.1560 O.2   158  TRP158     -0.2867
    123  CB        12.7940    6.4930   37.0010 C.3   158  TRP158      0.0550
    124  CG        13.3390    5.1290   36.6910 C.ar  158  TRP158      0.0003
    125  CD1       13.8560    4.2250   37.5740 C.ar  158  TRP158      0.0946
    126  CD2       13.4700    4.5390   35.3860 C.ar  158  TRP158      0.0152
    127  NE1       14.3030    3.1040   36.8980 N.ar  158  TRP158     -0.2442
    128  CE2       14.0770    3.2730   35.5560 C.ar  158  TRP158      0.0810
    129  CE3       13.1350    4.9600   34.0880 C.ar  158  TRP158      0.0012
    130  CZ2       14.3550    2.4230   34.4780 C.ar  158  TRP158      0.0191
    131  CZ3       13.4140    4.1150   33.0170 C.ar  158  TRP158      0.0001
    132  CH2       14.0170    2.8610   33.2210 C.ar  158  TRP158      0.0015
    133  N         10.3750    9.7120   36.4800 N.3   160  TRP160     -0.1241
    134  CA         9.0550    9.6890   35.8520 C.3   160  TRP160      0.1605
    135  C          8.7280    8.2040   35.9960 C.2   160  TRP160      0.2264
    136  O          9.6370    7.3970   36.2030 O.2   160  TRP160     -0.2867
    137  CB         9.0890   10.0930   34.3600 C.3   160  TRP160      0.0550
    138  CG        10.0140    9.2860   33.4960 C.ar  160  TRP160      0.0003
    139  CD1        9.7330    8.1240   32.8240 C.ar  160  TRP160      0.0946
    140  CD2       11.3780    9.6000   33.2040 C.ar  160  TRP160      0.0152
    141  NE1       10.8470    7.6980   32.1300 N.ar  160  TRP160     -0.2442
    142  CE2       11.8700    8.5860   32.3470 C.ar  160  TRP160      0.0810
    143  CE3       12.2350   10.6500   33.5800 C.ar  160  TRP160      0.0012
    144  CZ2       13.1800    8.5870   31.8590 C.ar  160  TRP160      0.0191
    145  CZ3       13.5400   10.6510   33.0900 C.ar  160  TRP160      0.0001
    146  CH2       13.9970    9.6240   32.2390 C.ar  160  TRP160      0.0015
    147  N          8.0810    4.6580   34.7090 N.3   162  TYR162     -0.1241
    148  CA         8.4060    3.9120   33.4880 C.3   162  TYR162      0.1605
    149  C          7.4820    2.6980   33.4310 C.2   162  TYR162      0.2264
    150  O          7.4610    1.8850   34.3700 O.2   162  TYR162     -0.2867
    151  CB         9.8650    3.4660   33.5210 C.3   162  TYR162      0.0534
    152  CG        10.2400    2.4850   32.4250 C.ar  162  TYR162     -0.0201
    153  CD1       10.7080    2.9230   31.1890 C.ar  162  TYR162     -0.0009
    154  CD2       10.1920    1.1130   32.6590 C.ar  162  TYR162     -0.0009
    155  CE1       11.1440    1.9980   30.2060 C.ar  162  TYR162      0.0417
    156  CE2       10.6150    0.2000   31.6980 C.ar  162  TYR162      0.0417
    157  CZ        11.0950    0.6430   30.4820 C.ar  162  TYR162      0.1957
    158  OH        11.5680   -0.2740   29.5600 O.3   162  TYR162     -0.2866
    159  N         15.2750    0.8170   20.2970 N.3   206  GLU206     -0.1245
    160  CA        16.2730    1.1630   21.3050 C.3   206  GLU206      0.1567
    161  C         17.4150    0.2340   20.9770 C.2   206  GLU206      0.2260
    162  O         17.2250   -0.9810   20.9230 O.2   206  GLU206     -0.2867
    163  CB        15.7930    0.8840   22.7190 C.3   206  GLU206      0.0388
    164  CG        14.6460    1.7710   23.1800 C.3   206  GLU206      0.1160
    165  CD        14.4440    1.6780   24.6750 C.2   206  GLU206      0.3649
    166  OE1       13.7900    0.7280   25.1590 O.co2 206  GLU206     -0.2457
    167  OE2       14.9660    2.5670   25.3790 O.co2 206  GLU206     -0.2457
@<TRIPOS>BOND
     1     3     4    2
     2     3     2    1
     3     1     2    1
     4     2     5    1
     5    15    16    1
     6     5     6    1
     7    16    19    1
     8    16    17    1
     9    46    47    2
    10    46    45    1
    11    19    20    1
    12    17    18    2
    13     6     7   ar
    14     6     8   ar
    15     7     9   ar
    16    45    44    1
    17    45    48    1
    18     8    11   ar
    19     8    10   ar
    20    20    22   am
    21    20    21    2
    22    11    13   ar
    23   159   160    1
    24    52    54   ar
    25    52    50   ar
    26    55    54    1
    27    54    53   ar
    28    50    49   ar
    29    60    61    1
    30    60    57    1
    31     9    10   ar
    32    53    51   ar
    33    49    51   ar
    34    49    48    1
    35   162   161    2
    36   161   160    1
    37    63    61   ar
    38    63    65   ar
    39    10    12   ar
    40    61    62   ar
    41    56    57    1
    42   160   163    1
    43    59    58    2
    44    13    14   ar
    45    23    24    1
    46    65    64   ar
    47    62    64   ar
    48    57    58    1
    49    58    66   am
    50    12    14   ar
    51    80    81    1
    52    83    82    2
    53   163   164    1
    54    24    27    1
    55    24    25    1
    56   164   165    1
    57    29    28   ar
    58    29    31   ar
    59    69    68    2
    60    84    81    1
    61    84    85    1
    62    27    28    1
    63    81    82    1
    64    68    67    1
    65    66    67    1
    66    28    30   ar
    67    31    32   ar
    68    25    26    2
    69    70    67    1
    70    70    71    1
    71    42    41    1
    72    87    85   ar
    73    85    86   ar
    74   165   166   ar
    75   165   167   ar
    76   118   117    1
    77    76    78   ar
    78    76    73   ar
    79    39    40    2
    80    39    38    1
    81    94    96   ar
    82    94    93   ar
    83    96    97   ar
    84    32    30   ar
    85    32    34   ar
    86    30    33   ar
    87    71    73   ar
    88    71    72   ar
    89    78    79   ar
    90    41    38    1
    91    41    43    1
    92    73    75   ar
    93    38    37    1
    94    88    89    1
    95   113   112    1
    96   113   114    2
    97   112   115    1
    98   112   111    1
    99    93    92    1
   100    93    95   ar
   101    34    36   ar
   102    72    74   ar
   103    33    35   ar
   104   115   116    1
   105    92    89    1
   106    97    99   ar
   107    97    95   ar
   108   117   116    1
   109    91    90    2
   110    79    77   ar
   111    75    74   ar
   112    75    77   ar
   113    89    90    1
   114    99   101   ar
   115    95    98   ar
   116    36    35   ar
   117   110   108   ar
   118   101   100   ar
   119   107   108    1
   120   107   106    1
   121    98   100   ar
   122   108   109   ar
   123   158   157    1
   124   104   103    1
   125   104   105    2
   126   103   106    1
   127   103   102    1
   128   155   157   ar
   129   155   153   ar
   130   157   156   ar
   131   153   152   ar
   132   156   154   ar
   133   144   146   ar
   134   144   142   ar
   135   141   142   ar
   136   141   139   ar
   137   146   145   ar
   138   142   140   ar
   139   152   154   ar
   140   152   151    1
   141   139   138   ar
   142   131   132   ar
   143   131   129   ar
   144   145   143   ar
   145   140   138   ar
   146   140   143   ar
   147   132   130   ar
   148   149   148    1
   149   149   150    2
   150   148   151    1
   151   148   147    1
   152   138   137    1
   153   129   126   ar
   154   137   134    1
   155   130   128   ar
   156   126   128   ar
   157   126   124   ar
   158   128   127   ar
   159   134   135    1
   160   134   133    1
   161   135   136    2
   162   124   123    1
   163   124   125   ar
   164   127   125   ar
   165   123   120    1
   166   120   121    1
   167   120   119    1
   168   121   122    2
