@<TRIPOS>MOLECULE
tmp/2bwaB00.pdb
 176 176 0 0 0
SMALL
GASTEIGER

@<TRIPOS>ATOM
      1  N         33.7070    9.1920   -5.0880 N.3     8  TRP8       -0.1241
      2  CA        35.0040    9.6790   -5.5370 C.3     8  TRP8        0.1605
      3  C         35.6690   10.5280   -4.4610 C.2     8  TRP8        0.2264
      4  O         36.4590   11.4140   -4.7730 O.2     8  TRP8       -0.2867
      5  CB        34.8420   10.5190   -6.8070 C.3     8  TRP8        0.0550
      6  CG        34.0950    9.8260   -7.9140 C.ar    8  TRP8        0.0003
      7  CD1       32.9000   10.2110   -8.4650 C.ar    8  TRP8        0.0946
      8  CD2       34.5030    8.6460   -8.6250 C.ar    8  TRP8        0.0152
      9  NE1       32.5420    9.3450   -9.4740 N.ar    8  TRP8       -0.2442
     10  CE2       33.5060    8.3770   -9.5950 C.ar    8  TRP8        0.0810
     11  CE3       35.6140    7.7920   -8.5390 C.ar    8  TRP8        0.0012
     12  CZ2       33.5880    7.2880  -10.4740 C.ar    8  TRP8        0.0191
     13  CZ3       35.6950    6.7060   -9.4160 C.ar    8  TRP8        0.0001
     14  CH2       34.6850    6.4670  -10.3710 C.ar    8  TRP8        0.0015
     15  N         37.4340    5.7700   -4.2680 N.3    23  ASN23      -0.1240
     16  CA        37.4460    5.1340   -5.5830 C.3    23  ASN23       0.1653
     17  C         36.4510    4.0010   -5.9020 C.2    23  ASN23       0.2266
     18  O         36.8370    2.9240   -6.3630 O.2    23  ASN23      -0.2867
     19  CB        38.9040    4.6640   -5.8080 C.3    23  ASN23       0.1155
     20  CG        39.2420    4.3950   -7.2660 C.2    23  ASN23       0.2627
     21  OD1       38.7160    5.0270   -8.1710 O.2    23  ASN23      -0.2716
     22  ND2       40.1540    3.4560   -7.4900 N.am   23  ASN23      -0.0877
     23  N         34.6170    2.8140   -8.3200 N.3    25  TRP25      -0.1241
     24  CA        34.4230    3.0120   -9.7510 C.3    25  TRP25       0.1605
     25  C         33.5900    2.0000  -10.5380 C.2    25  TRP25       0.2264
     26  O         33.0940    2.3260  -11.6190 O.2    25  TRP25      -0.2867
     27  CB        35.7810    3.1530  -10.4390 C.3    25  TRP25       0.0550
     28  CG        36.5940    1.9080  -10.3790 C.ar   25  TRP25       0.0003
     29  CD1       37.4510    1.5310   -9.3800 C.ar   25  TRP25       0.0946
     30  CD2       36.5890    0.8390  -11.3300 C.ar   25  TRP25       0.0152
     31  NE1       37.9770    0.2900   -9.6530 N.ar   25  TRP25      -0.2442
     32  CE2       37.4650   -0.1580  -10.8430 C.ar   25  TRP25       0.0810
     33  CE3       35.9270    0.6230  -12.5480 C.ar   25  TRP25       0.0012
     34  CZ2       37.6960   -1.3540  -11.5330 C.ar   25  TRP25       0.0191
     35  CZ3       36.1560   -0.5670  -13.2340 C.ar   25  TRP25       0.0001
     36  CH2       37.0340   -1.5400  -12.7220 C.ar   25  TRP25       0.0015
     37  N         34.9410   -5.7430  -10.7880 N.3    55  VAL55      -0.1245
     38  CA        35.4120   -5.0020   -9.6260 C.3    55  VAL55       0.1561
     39  C         34.4670   -3.8650   -9.2910 C.2    55  VAL55       0.2260
     40  O         34.0780   -3.0890  -10.1610 O.2    55  VAL55      -0.2867
     41  CB        36.8250   -4.4050   -9.8710 C.3    55  VAL55       0.0252
     42  CG1       37.2560   -3.5600   -8.6630 C.3    55  VAL55       0.0019
     43  CG2       37.8130   -5.5120  -10.1270 C.3    55  VAL55       0.0019
     44  N         38.2210    0.3210   -5.8970 N.3    58  TYR58      -0.1241
     45  CA        39.6360    0.1560   -5.5640 C.3    58  TYR58       0.1605
     46  C         40.0750    1.2540   -4.5880 C.2    58  TYR58       0.2264
     47  O         40.7490    2.2090   -4.9760 O.2    58  TYR58      -0.2867
     48  CB        40.5020    0.1990   -6.8390 C.3    58  TYR58       0.0534
     49  CG        42.0010    0.0100   -6.5910 C.ar   58  TYR58      -0.0201
     50  CD1       42.4830   -1.1230   -5.9300 C.ar   58  TYR58      -0.0009
     51  CD2       42.9300    0.9560   -7.0510 C.ar   58  TYR58      -0.0009
     52  CE1       43.8860   -1.3190   -5.7280 C.ar   58  TYR58       0.0417
     53  CE2       44.3160    0.7790   -6.8550 C.ar   58  TYR58       0.0417
     54  CZ        44.7760   -0.3480   -6.1960 C.ar   58  TYR58       0.1957
     55  OH        46.1180   -0.4840   -5.9540 O.3    58  TYR58      -0.2866
     56  N         47.2350   10.2430  -10.6870 N.3    66  HIS66      -0.1226
     57  CA        46.1420    9.3280  -10.9530 C.3    66  HIS66       0.1752
     58  C         45.0800   10.0660  -11.7610 C.2    66  HIS66       0.2596
     59  O         44.4010   10.9370  -11.2240 O.2    66  HIS66      -0.2718
     60  CB        45.5540    8.8640   -9.6150 C.3    66  HIS66       0.0759
     61  CG        44.3570    7.9760   -9.7490 C.ar   66  HIS66       0.0818
     62  ND1       44.4580    6.6120   -9.8790 N.ar   66  HIS66      -0.2268
     63  CD2       43.0280    8.2580   -9.7230 C.ar   66  HIS66       0.1154
     64  CE1       43.2460    6.0820   -9.9170 C.ar   66  HIS66       0.1986
     65  NE2       42.3590    7.0620   -9.8240 N.ar   66  HIS66      -0.2212
     66  N         44.9420    9.7130  -13.0410 N.am   67  TRP67      -0.1976
     67  CA        43.9610   10.3800  -13.9160 C.3    67  TRP67       0.1640
     68  C         44.0660   11.8930  -13.8060 C.2    67  TRP67       0.2290
     69  O         43.0540   12.5960  -13.6070 O.2    67  TRP67      -0.2864
     70  CB        42.5510    9.9300  -13.5550 C.3    67  TRP67       0.0576
     71  CG        42.1200    8.7610  -14.3480 C.ar   67  TRP67       0.0006
     72  CD1       41.3970    8.7770  -15.5110 C.ar   67  TRP67       0.0946
     73  CD2       42.4530    7.3940  -14.1010 C.ar   67  TRP67       0.0152
     74  NE1       41.2650    7.5010  -16.0010 N.ar   67  TRP67      -0.2442
     75  CE2       41.9050    6.6320  -15.1560 C.ar   67  TRP67       0.0810
     76  CE3       43.1660    6.7350  -13.0910 C.ar   67  TRP67       0.0012
     77  CZ2       42.0480    5.2460  -15.2310 C.ar   67  TRP67       0.0191
     78  CZ3       43.3070    5.3540  -13.1660 C.ar   67  TRP67       0.0001
     79  CH2       42.7480    4.6240  -14.2310 C.ar   67  TRP67       0.0015
     80  N         48.8570   -1.1590   -7.8880 N.3   105  ASP105     -0.1239
     81  CA        48.3650   -0.8440   -9.2350 C.3   105  ASP105      0.1674
     82  C         49.2980    0.3000   -9.6830 C.2   105  ASP105      0.2266
     83  O         49.2720    1.3930   -9.1080 O.2   105  ASP105     -0.2867
     84  CB        46.9090   -0.3500   -9.1470 C.3   105  ASP105      0.1410
     85  CG        46.1100   -0.6350  -10.4130 C.2   105  ASP105      0.3668
     86  OD1       46.5260   -1.5030  -11.2130 O.co2 105  ASP105     -0.2456
     87  OD2       45.0550   -0.0020  -10.5880 O.co2 105  ASP105     -0.2456
     88  N         50.6590    2.6600  -12.9180 N.3   107  TRP107     -0.1241
     89  CA        50.2950    3.1250  -14.2500 C.3   107  TRP107      0.1605
     90  C         51.3730    3.7620  -15.0930 C.2   107  TRP107      0.2264
     91  O         52.1530    4.5710  -14.6060 O.2   107  TRP107     -0.2867
     92  CB        49.1350    4.1170  -14.1420 C.3   107  TRP107      0.0550
     93  CG        47.8640    3.5180  -13.6130 C.ar  107  TRP107      0.0003
     94  CD1       47.3570    3.6280  -12.3500 C.ar  107  TRP107      0.0946
     95  CD2       46.9370    2.7120  -14.3510 C.ar  107  TRP107      0.0152
     96  NE1       46.1610    2.9360  -12.2560 N.ar  107  TRP107     -0.2442
     97  CE2       45.8850    2.3670  -13.4720 C.ar  107  TRP107      0.0810
     98  CE3       46.8940    2.2530  -15.6750 C.ar  107  TRP107      0.0012
     99  CZ2       44.8020    1.5820  -13.8750 C.ar  107  TRP107      0.0191
    100  CZ3       45.8100    1.4690  -16.0820 C.ar  107  TRP107      0.0001
    101  CH2       44.7820    1.1450  -15.1820 C.ar  107  TRP107      0.0015
    102  N         49.3760   -1.2370  -17.2330 N.3   123  GLU123     -0.1245
    103  CA        48.9480   -1.2920  -15.8500 C.3   123  GLU123      0.1567
    104  C         49.7000   -2.4820  -15.2680 C.2   123  GLU123      0.2260
    105  O         49.5110   -3.6120  -15.7110 O.2   123  GLU123     -0.2867
    106  CB        47.4460   -1.5510  -15.7550 C.3   123  GLU123      0.0388
    107  CG        46.9840   -1.7090  -14.3000 C.3   123  GLU123      0.1160
    108  CD        45.5080   -2.0560  -14.1910 C.2   123  GLU123      0.3649
    109  OE1       44.8620   -2.2700  -15.2450 O.co2 123  GLU123     -0.2457
    110  OE2       45.0090   -2.1190  -13.0530 O.co2 123  GLU123     -0.2457
    111  N         50.2720   -4.6690  -11.9370 N.3   125  MET125     -0.1245
    112  CA        49.7710   -4.9430  -10.5990 C.3   125  MET125      0.1570
    113  C         50.6530   -5.9390   -9.8770 C.2   125  MET125      0.2261
    114  O         51.2880   -6.7820  -10.5010 O.2   125  MET125     -0.2867
    115  CB        48.3370   -5.5150  -10.6450 C.3   125  MET125      0.0387
    116  CG        47.3040   -4.6810  -11.4040 C.3   125  MET125      0.0595
    117  SD        45.6430   -5.1970  -10.8340 S.3   125  MET125     -0.1393
    118  CE        45.6530   -4.4600   -9.1860 C.3   125  MET125      0.0692
    119  N         44.7640   -5.4560  -23.3780 N.3   158  TRP158     -0.1241
    120  CA        43.5390   -4.6530  -23.4720 C.3   158  TRP158      0.1605
    121  C         43.8750   -3.3320  -24.1520 C.2   158  TRP158      0.2264
    122  O         44.8550   -3.2480  -24.8880 O.2   158  TRP158     -0.2867
    123  CB        42.9560   -4.3590  -22.0800 C.3   158  TRP158      0.0550
    124  CG        42.5220   -5.5760  -21.2940 C.ar  158  TRP158      0.0003
    125  CD1       42.0450   -6.7590  -21.7980 C.ar  158  TRP158      0.0946
    126  CD2       42.4710   -5.7050  -19.8620 C.ar  158  TRP158      0.0152
    127  NE1       41.6990   -7.6130  -20.7690 N.ar  158  TRP158     -0.2442
    128  CE2       41.9510   -6.9920  -19.5730 C.ar  158  TRP158      0.0810
    129  CE3       42.8100   -4.8570  -18.7960 C.ar  158  TRP158      0.0012
    130  CZ2       41.7660   -7.4500  -18.2630 C.ar  158  TRP158      0.0191
    131  CZ3       42.6220   -5.3160  -17.4920 C.ar  158  TRP158      0.0001
    132  CH2       42.1060   -6.6010  -17.2410 C.ar  158  TRP158      0.0015
    133  N         45.1660   -1.1500  -22.9460 N.3   160  TRP160     -0.1241
    134  CA        46.4860   -0.8850  -22.3920 C.3   160  TRP160      0.1605
    135  C         46.9430   -2.2710  -21.9650 C.2   160  TRP160      0.2264
    136  O         46.1160   -3.1550  -21.7760 O.2   160  TRP160     -0.2867
    137  CB        46.4330    0.0610  -21.1790 C.3   160  TRP160      0.0550
    138  CG        45.6540   -0.4420  -20.0030 C.ar  160  TRP160      0.0003
    139  CD1       46.0800   -1.3170  -19.0420 C.ar  160  TRP160      0.0946
    140  CD2       44.3120   -0.0880  -19.6550 C.ar  160  TRP160      0.0152
    141  NE1       45.0890   -1.5310  -18.1170 N.ar  160  TRP160     -0.2442
    142  CE2       43.9900   -0.7890  -18.4670 C.ar  160  TRP160      0.0810
    143  CE3       43.3470    0.7540  -20.2300 C.ar  160  TRP160      0.0012
    144  CZ2       42.7420   -0.6740  -17.8410 C.ar  160  TRP160      0.0191
    145  CZ3       42.1030    0.8690  -19.6080 C.ar  160  TRP160      0.0001
    146  CH2       41.8130    0.1570  -18.4230 C.ar  160  TRP160      0.0015
    147  N         47.9770   -5.1070  -19.5750 N.3   162  TYR162     -0.1241
    148  CA        47.7730   -5.4310  -18.1710 C.3   162  TYR162      0.1605
    149  C         48.7600   -6.5150  -17.7470 C.2   162  TYR162      0.2264
    150  O         48.8020   -7.5950  -18.3460 O.2   162  TYR162     -0.2867
    151  CB        46.3200   -5.8790  -17.9490 C.3   162  TYR162      0.0534
    152  CG        46.0270   -6.4960  -16.6030 C.ar  162  TYR162     -0.0201
    153  CD1       46.2340   -7.8660  -16.3750 C.ar  162  TYR162     -0.0009
    154  CD2       45.4560   -5.7410  -15.5790 C.ar  162  TYR162     -0.0009
    155  CE1       45.8670   -8.4660  -15.1600 C.ar  162  TYR162      0.0417
    156  CE2       45.0770   -6.3360  -14.3540 C.ar  162  TYR162      0.0417
    157  CZ        45.2860   -7.7000  -14.1630 C.ar  162  TYR162      0.1957
    158  OH        44.8760   -8.2990  -12.9960 O.3   162  TYR162     -0.2866
    159  N         50.3580    2.9650   -6.9160 N.3   202  GLU202     -0.1245
    160  CA        49.2390    2.9260   -5.9710 C.3   202  GLU202      0.1567
    161  C         49.1430    1.5620   -5.3310 C.2   202  GLU202      0.2260
    162  O         49.7020    0.5760   -5.8500 O.2   202  GLU202     -0.2867
    163  CB        47.9000    3.1680   -6.7140 C.3   202  GLU202      0.0388
    164  CG        48.0180    4.0480   -7.9260 C.3   202  GLU202      0.1160
    165  CD        46.6760    4.4670   -8.5080 C.2   202  GLU202      0.3649
    166  OE1       45.6350    3.8550   -8.1610 O.co2 202  GLU202     -0.2457
    167  OE2       46.6740    5.4110   -9.3300 O.co2 202  GLU202     -0.2457
    168  N         41.2160   -4.2130   -4.4390 N.3   206  GLU206     -0.1245
    169  CA        40.1830   -4.3160   -5.4800 C.3   206  GLU206      0.1567
    170  C         39.0770   -5.1090   -4.7820 C.2   206  GLU206      0.2260
    171  O         39.3430   -6.1620   -4.2140 O.2   206  GLU206     -0.2867
    172  CB        40.6950   -5.0990   -6.6870 C.3   206  GLU206      0.0388
    173  CG        41.7080   -4.3260   -7.5000 C.3   206  GLU206      0.1160
    174  CD        41.9020   -4.9080   -8.8820 C.2   206  GLU206      0.3649
    175  OE1       42.5640   -5.9570   -9.0240 O.co2 206  GLU206     -0.2457
    176  OE2       41.3700   -4.3030   -9.8280 O.co2 206  GLU206     -0.2457
@<TRIPOS>BOND
     1   122   121    2
     2   121   120    1
     3   120   119    1
     4   120   123    1
     5   133   134    1
     6   134   135    1
     7   134   137    1
     8   123   124    1
     9   135   136    2
    10   125   124   ar
    11   125   127   ar
    12   124   126   ar
    13   137   138    1
    14   127   128   ar
    15   143   140   ar
    16   143   145   ar
    17   138   140   ar
    18   138   139   ar
    19   126   128   ar
    20   126   129   ar
    21   140   142   ar
    22   145   146   ar
    23   147   148    1
    24   128   130   ar
    25   139   141   ar
    26   129   131   ar
    27   142   141   ar
    28   142   144   ar
    29   146   144   ar
    30   150   149    2
    31   130   132   ar
    32   148   151    1
    33   148   149    1
    34   151   152    1
    35   131   132   ar
    36   102   103    1
    37   152   153   ar
    38   152   154   ar
    39   153   155   ar
    40   100    98   ar
    41   100   101   ar
    42    74    72   ar
    43    74    75   ar
    44   103   106    1
    45   103   104    1
    46   106   107    1
    47   105   104    2
    48    98    95   ar
    49   154   156   ar
    50    72    71   ar
    51   109   108   ar
    52    77    75   ar
    53    77    79   ar
    54   101    99   ar
    55   155   157   ar
    56    75    73   ar
    57    90    91    2
    58    90    89    1
    59   156   157   ar
    60    95    93   ar
    61    95    97   ar
    62    71    73   ar
    63    71    70    1
    64   107   108    1
    65    89    92    1
    66    89    88    1
    67    79    78   ar
    68   108   110   ar
    69   157   158    1
    70    92    93    1
    71    73    76   ar
    72    67    68    1
    73    67    70    1
    74    67    66    1
    75    99    97   ar
    76    68    69    2
    77    93    94   ar
    78    97    96   ar
    79    35    36   ar
    80    35    33   ar
    81    78    76   ar
    82    66    58   am
    83    36    34   ar
    84    33    30   ar
    85    94    96   ar
    86   111   112    1
    87    58    59    2
    88    58    57    1
    89    26    25    2
    90    34    32   ar
    91   116   117    1
    92   116   115    1
    93    30    32   ar
    94    30    28   ar
    95    86    85   ar
    96    57    56    1
    97    57    60    1
    98    32    31   ar
    99   117   118    1
   100    37    38    1
   101   115   112    1
   102   112   113    1
   103    87    85   ar
   104    25    24    1
   105   114   113    2
   106    12    14   ar
   107    12    10   ar
   108    27    28    1
   109    27    24    1
   110    85    84    1
   111    28    29   ar
   112    14    13   ar
   113    40    39    2
   114    43    41    1
   115    64    62   ar
   116    64    65   ar
   117    62    61   ar
   118    41    38    1
   119    41    42    1
   120   176   174   ar
   121    65    63   ar
   122    24    23    1
   123    61    63   ar
   124    61    60    1
   125    82    81    1
   126    82    83    2
   127    31    29   ar
   128    38    39    1
   129    10     9   ar
   130    10     8   ar
   131     9     7   ar
   132    13    11   ar
   133   167   165   ar
   134    81    84    1
   135    81    80    1
   136   175   174   ar
   137   174   173    1
   138     8    11   ar
   139     8     6   ar
   140   165   166   ar
   141   165   164    1
   142     7     6   ar
   143    21    20    2
   144   164   163    1
   145     6     5    1
   146   173   172    1
   147    22    20   am
   148    20    19    1
   149    51    53   ar
   150    51    49   ar
   151   159   160    1
   152    53    54   ar
   153    48    49    1
   154    48    45    1
   155     5     2    1
   156   163   160    1
   157   172   169    1
   158    49    50   ar
   159    18    17    2
   160    54    55    1
   161    54    52   ar
   162   160   161    1
   163    50    52   ar
   164    17    16    1
   165    44    45    1
   166   162   161    2
   167    19    16    1
   168    16    15    1
   169    45    46    1
   170     2     1    1
   171     2     3    1
   172   169   170    1
   173   169   168    1
   174    47    46    2
   175   170   171    2
   176     4     3    2
