@<TRIPOS>MOLECULE
tmp/2bwcB00.pdb
 142 142 0 0 0
SMALL
GASTEIGER

@<TRIPOS>ATOM
      1  N         34.5920    3.2330   -8.2420 N.3    25  TRP25      -0.1241
      2  CA        34.3570    3.3170   -9.6800 C.3    25  TRP25       0.1605
      3  C         33.5430    2.1690  -10.2720 C.2    25  TRP25       0.2264
      4  O         33.0200    2.2840  -11.3790 O.2    25  TRP25      -0.2867
      5  CB        35.7000    3.3790  -10.4140 C.3    25  TRP25       0.0550
      6  CG        36.4900    2.1160  -10.2740 C.ar   25  TRP25       0.0003
      7  CD1       37.3010    1.7630   -9.2320 C.ar   25  TRP25       0.0946
      8  CD2       36.4880    1.0010  -11.1740 C.ar   25  TRP25       0.0152
      9  NE1       37.7990    0.4970   -9.4260 N.ar   25  TRP25      -0.2442
     10  CE2       37.3160    0.0070  -10.6100 C.ar   25  TRP25       0.0810
     11  CE3       35.8640    0.7450  -12.4010 C.ar   25  TRP25       0.0012
     12  CZ2       37.5370   -1.2250  -11.2340 C.ar   25  TRP25       0.0191
     13  CZ3       36.0830   -0.4800  -13.0210 C.ar   25  TRP25       0.0001
     14  CH2       36.9130   -1.4490  -12.4350 C.ar   25  TRP25       0.0015
     15  N         32.3490  -10.8100  -10.0000 N.3    53  ASN53      -0.1240
     16  CA        33.0040  -10.9150  -11.3070 C.3    53  ASN53       0.1653
     17  C         33.5100   -9.5530  -11.7890 C.2    53  ASN53       0.2266
     18  O         34.4970   -9.4700  -12.5190 O.2    53  ASN53      -0.2867
     19  CB        32.0510  -11.5190  -12.3470 C.3    53  ASN53       0.1155
     20  CG        32.7730  -11.9880  -13.6060 C.2    53  ASN53       0.2627
     21  OD1       32.1490  -12.2000  -14.6470 O.2    53  ASN53      -0.2716
     22  ND2       34.0890  -12.1630  -13.5110 N.am   53  ASN53      -0.0877
     23  N         34.6310   -5.5740  -10.5430 N.3    55  VAL55      -0.1245
     24  CA        35.0960   -4.7940   -9.4030 C.3    55  VAL55       0.1561
     25  C         34.1690   -3.6250   -9.0990 C.2    55  VAL55       0.2260
     26  O         33.7980   -2.8620   -9.9900 O.2    55  VAL55      -0.2867
     27  CB        36.5250   -4.2410   -9.6510 C.3    55  VAL55       0.0252
     28  CG1       37.0030   -3.4550   -8.4360 C.3    55  VAL55       0.0019
     29  CG2       37.4780   -5.3820   -9.9630 C.3    55  VAL55       0.0019
     30  N         49.3320   -1.1820  -17.0720 N.3   123  GLU123     -0.1245
     31  CA        48.9090   -1.2280  -15.6870 C.3   123  GLU123      0.1567
     32  C         49.6170   -2.4320  -15.0880 C.2   123  GLU123      0.2260
     33  O         49.4040   -3.5650  -15.5190 O.2   123  GLU123     -0.2867
     34  CB        47.3930   -1.4130  -15.5930 C.3   123  GLU123      0.0388
     35  CG        46.9080   -1.7210  -14.1960 C.3   123  GLU123      0.1160
     36  CD        45.4100   -1.9550  -14.1220 C.2   123  GLU123      0.3649
     37  OE1       44.7900   -2.2650  -15.1660 O.co2 123  GLU123     -0.2457
     38  OE2       44.8580   -1.8470  -13.0090 O.co2 123  GLU123     -0.2457
     39  N         50.1190   -4.6120  -11.7700 N.3   125  MET125     -0.1245
     40  CA        49.5880   -4.8940  -10.4450 C.3   125  MET125      0.1570
     41  C         50.4640   -5.8890   -9.7170 C.2   125  MET125      0.2261
     42  O         51.1250   -6.7250  -10.3330 O.2   125  MET125     -0.2867
     43  CB        48.1720   -5.4770  -10.5320 C.3   125  MET125      0.0387
     44  CG        47.1420   -4.5750  -11.1740 C.3   125  MET125      0.0595
     45  SD        45.4580   -5.1000  -10.7320 S.3   125  MET125     -0.1393
     46  CE        45.1950   -4.0940   -9.2670 C.3   125  MET125      0.0692
     47  N         49.7540   -8.4040   -6.6450 N.3   127  TRP127     -0.1241
     48  CA        48.8110   -9.0170   -5.7100 C.3   127  TRP127      0.1605
     49  C         49.5450   -9.6090   -4.5180 C.2   127  TRP127      0.2264
     50  O         50.3880  -10.4830   -4.6800 O.2   127  TRP127     -0.2867
     51  CB        48.0150  -10.1120   -6.4280 C.3   127  TRP127      0.0550
     52  CG        47.0060   -9.5830   -7.4060 C.ar  127  TRP127      0.0003
     53  CD1       47.1520   -8.5110   -8.2420 C.ar  127  TRP127      0.0946
     54  CD2       45.6900  -10.0970   -7.6390 C.ar  127  TRP127      0.0152
     55  NE1       46.0040   -8.3220   -8.9790 N.ar  127  TRP127     -0.2442
     56  CE2       45.0910   -9.2830   -8.6290 C.ar  127  TRP127      0.0810
     57  CE3       44.9570  -11.1650   -7.1070 C.ar  127  TRP127      0.0012
     58  CZ2       43.7920   -9.5050   -9.0970 C.ar  127  TRP127      0.0191
     59  CZ3       43.6630  -11.3860   -7.5730 C.ar  127  TRP127      0.0001
     60  CH2       43.0950  -10.5580   -8.5570 C.ar  127  TRP127      0.0015
     61  N         40.4750  -13.7950   -9.0400 N.3   135  MET135     -0.1231
     62  CA        41.6390  -14.0850   -9.8810 C.3   135  MET135      0.1687
     63  C         42.0900  -12.8820  -10.7100 C.2   135  MET135      0.2434
     64  O         41.2990  -11.9840  -10.9960 O.2   135  MET135     -0.2733
     65  CB        41.3160  -15.2320  -10.8460 C.3   135  MET135      0.0400
     66  CG        40.8760  -16.5310  -10.1960 C.3   135  MET135      0.0596
     67  SD        42.1850  -17.3420   -9.2830 S.3   135  MET135     -0.1393
     68  CE        43.1710  -18.0200  -10.6070 C.3   135  MET135      0.0692
     69  N         43.3720  -12.8570  -11.1150 N.am  136  PRO136     -0.2718
     70  CA        43.8950  -11.7470  -11.9210 C.3   136  PRO136      0.1535
     71  C         43.2600  -11.7780  -13.3100 C.2   136  PRO136      0.2599
     72  O         42.5650  -12.7340  -13.6540 O.2   136  PRO136     -0.2715
     73  CB        45.3950  -12.0360  -11.9830 C.3   136  PRO136      0.0310
     74  CG        45.6530  -12.8210  -10.7290 C.3   136  PRO136      0.0237
     75  CD        44.4650  -13.7450  -10.6860 C.3   136  PRO136      0.0939
     76  N         43.5050  -10.7420  -14.1050 N.am  137  GLY137     -0.1955
     77  CA        42.9530  -10.7030  -15.4470 C.3   137  GLY137      0.1869
     78  C         43.8400  -11.4550  -16.4220 C.2   137  GLY137      0.2309
     79  O         44.9730  -11.8070  -16.0880 O.2   137  GLY137     -0.2863
     80  N         44.6360   -5.4890  -23.1830 N.3   158  TRP158     -0.1241
     81  CA        43.4440   -4.6490  -23.2940 C.3   158  TRP158      0.1605
     82  C         43.8260   -3.3210  -23.9390 C.2   158  TRP158      0.2264
     83  O         44.8160   -3.2420  -24.6620 O.2   158  TRP158     -0.2867
     84  CB        42.8350   -4.3830  -21.9110 C.3   158  TRP158      0.0550
     85  CG        42.4670   -5.6170  -21.1440 C.ar  158  TRP158      0.0003
     86  CD1       42.0330   -6.8080  -21.6590 C.ar  158  TRP158      0.0946
     87  CD2       42.4510   -5.7700  -19.7160 C.ar  158  TRP158      0.0152
     88  NE1       41.7480   -7.6920  -20.6410 N.ar  158  TRP158     -0.2442
     89  CE2       41.9950   -7.0810  -19.4400 C.ar  158  TRP158      0.0810
     90  CE3       42.7740   -4.9270  -18.6430 C.ar  158  TRP158      0.0012
     91  CZ2       41.8570   -7.5680  -18.1340 C.ar  158  TRP158      0.0191
     92  CZ3       42.6350   -5.4130  -17.3440 C.ar  158  TRP158      0.0001
     93  CH2       42.1810   -6.7230  -17.1040 C.ar  158  TRP158      0.0015
     94  N         45.2120   -1.2000  -22.7560 N.3   160  TRP160     -0.1241
     95  CA        46.5320   -0.9310  -22.2080 C.3   160  TRP160      0.1605
     96  C         47.0070   -2.2960  -21.7360 C.2   160  TRP160      0.2264
     97  O         46.1860   -3.1640  -21.4360 O.2   160  TRP160     -0.2867
     98  CB        46.4540    0.0510  -21.0270 C.3   160  TRP160      0.0550
     99  CG        45.6400   -0.4330  -19.8630 C.ar  160  TRP160      0.0003
    100  CD1       46.0190   -1.3360  -18.9110 C.ar  160  TRP160      0.0946
    101  CD2       44.2970   -0.0500  -19.5400 C.ar  160  TRP160      0.0152
    102  NE1       44.9950   -1.5420  -18.0150 N.ar  160  TRP160     -0.2442
    103  CE2       43.9260   -0.7650  -18.3770 C.ar  160  TRP160      0.0810
    104  CE3       43.3690    0.8280  -20.1210 C.ar  160  TRP160      0.0012
    105  CZ2       42.6640   -0.6310  -17.7820 C.ar  160  TRP160      0.0191
    106  CZ3       42.1120    0.9620  -19.5300 C.ar  160  TRP160      0.0001
    107  CH2       41.7740    0.2350  -18.3700 C.ar  160  TRP160      0.0015
    108  N         48.0250   -5.1150  -19.4080 N.3   162  TYR162     -0.1241
    109  CA        47.7310   -5.4440  -18.0190 C.3   162  TYR162      0.1605
    110  C         48.6880   -6.5270  -17.5360 C.2   162  TYR162      0.2264
    111  O         48.6800   -7.6440  -18.0540 O.2   162  TYR162     -0.2867
    112  CB        46.2950   -5.9470  -17.8980 C.3   162  TYR162      0.0534
    113  CG        45.9450   -6.5530  -16.5580 C.ar  162  TYR162     -0.0201
    114  CD1       45.4960   -5.7590  -15.5020 C.ar  162  TYR162     -0.0009
    115  CD2       46.0200   -7.9350  -16.3580 C.ar  162  TYR162     -0.0009
    116  CE1       45.1140   -6.3300  -14.2770 C.ar  162  TYR162      0.0417
    117  CE2       45.6470   -8.5140  -15.1430 C.ar  162  TYR162      0.0417
    118  CZ        45.1890   -7.7090  -14.1120 C.ar  162  TYR162      0.1957
    119  OH        44.7580   -8.2920  -12.9400 O.3   162  TYR162     -0.2866
    120  N         41.0000   -4.0980   -4.3260 N.3   206  GLU206     -0.1245
    121  CA        39.9850   -4.2040   -5.3650 C.3   206  GLU206      0.1567
    122  C         38.8300   -4.9090   -4.6590 C.2   206  GLU206      0.2260
    123  O         39.0120   -5.9860   -4.0920 O.2   206  GLU206     -0.2867
    124  CB        40.4770   -5.0590   -6.5310 C.3   206  GLU206      0.0388
    125  CG        41.4800   -4.3620   -7.4200 C.3   206  GLU206      0.1160
    126  CD        41.6450   -5.0610   -8.7480 C.2   206  GLU206      0.3649
    127  OE1       42.3220   -6.1060   -8.8070 O.co2 206  GLU206     -0.2457
    128  OE2       41.0800   -4.5640   -9.7360 O.co2 206  GLU206     -0.2457
    129  N         35.1400   -6.6780   -4.8480 N.3   208  TRP208     -0.1241
    130  CA        34.1060   -7.3160   -5.6540 C.3   208  TRP208      0.1605
    131  C         32.8680   -7.4650   -4.7760 C.2   208  TRP208      0.2264
    132  O         31.7750   -7.0340   -5.1400 O.2   208  TRP208     -0.2867
    133  CB        34.5770   -8.6940   -6.1220 C.3   208  TRP208      0.0550
    134  CG        35.5100   -8.6570   -7.2970 C.ar  208  TRP208      0.0003
    135  CD1       35.1620   -8.6120   -8.6180 C.ar  208  TRP208      0.0946
    136  CD2       36.9430   -8.6710   -7.2600 C.ar  208  TRP208      0.0152
    137  NE1       36.2890   -8.6020   -9.4040 N.ar  208  TRP208     -0.2442
    138  CE2       37.3960   -8.6380   -8.5980 C.ar  208  TRP208      0.0810
    139  CE3       37.8880   -8.7090   -6.2260 C.ar  208  TRP208      0.0012
    140  CZ2       38.7560   -8.6440   -8.9310 C.ar  208  TRP208      0.0191
    141  CZ3       39.2450   -8.7160   -6.5590 C.ar  208  TRP208      0.0001
    142  CH2       39.6620   -8.6830   -7.9020 C.ar  208  TRP208      0.0015
@<TRIPOS>BOND
     1    83    82    2
     2    82    81    1
     3    81    80    1
     4    81    84    1
     5    94    95    1
     6    95    96    1
     7    95    98    1
     8    84    85    1
     9    96    97    2
    10    86    85   ar
    11    86    88   ar
    12    85    87   ar
    13    98    99    1
    14    88    89   ar
    15   104   101   ar
    16   104   106   ar
    17    99   101   ar
    18    99   100   ar
    19    87    89   ar
    20    87    90   ar
    21   101   103   ar
    22   106   107   ar
    23    89    91   ar
    24   108   109    1
    25   100   102   ar
    26    90    92   ar
    27   103   102   ar
    28   103   105   ar
    29   107   105   ar
    30    91    93   ar
    31   111   110    2
    32   109   112    1
    33   109   110    1
    34   112   113    1
    35    92    93   ar
    36    30    31    1
    37   113   115   ar
    38   113   114   ar
    39    78    79    2
    40    78    77    1
    41   115   117   ar
    42    31    34    1
    43    31    32    1
    44    34    35    1
    45    33    32    2
    46   114   116   ar
    47    77    76    1
    48    37    36   ar
    49   117   118   ar
    50    21    20    2
    51   116   118   ar
    52    35    36    1
    53    36    38   ar
    54   118   119    1
    55    76    71   am
    56    72    71    2
    57    20    22   am
    58    20    19    1
    59    71    70    1
    60    13    14   ar
    61    13    11   ar
    62    18    17    2
    63    14    12   ar
    64    11     8   ar
    65    19    16    1
    66    73    70    1
    67    73    74    1
    68    70    69    1
    69    17    16    1
    70    39    40    1
    71     4     3    2
    72    16    15    1
    73    12    10   ar
    74     8    10   ar
    75     8     6   ar
    76    44    45    1
    77    44    43    1
    78    69    63   am
    79    69    75    1
    80    64    63    2
    81    65    66    1
    82    65    62    1
    83    45    46    1
    84    74    75    1
    85    63    62    1
    86    10     9   ar
    87    68    67    1
    88    23    24    1
    89    43    40    1
    90    40    41    1
    91     5     6    1
    92     5     2    1
    93    42    41    2
    94     6     7   ar
    95     3     2    1
    96    66    67    1
    97    26    25    2
    98    29    27    1
    99    62    61    1
   100   128   126   ar
   101     2     1    1
   102    27    24    1
   103    27    28    1
   104     9     7   ar
   105   137   135   ar
   106   137   138   ar
   107    24    25    1
   108    58    56   ar
   109    58    60   ar
   110    55    56   ar
   111    55    53   ar
   112   140   138   ar
   113   140   142   ar
   114   127   126   ar
   115   126   125    1
   116    56    54   ar
   117   135   134   ar
   118   138   136   ar
   119    60    59   ar
   120    53    52   ar
   121   142   141   ar
   122    54    52   ar
   123    54    57   ar
   124    59    57   ar
   125   125   124    1
   126    52    51    1
   127   134   136   ar
   128   134   133    1
   129   136   139   ar
   130    47    48    1
   131   141   139   ar
   132   124   121    1
   133    51    48    1
   134   133   130    1
   135    48    49    1
   136   130   129    1
   137   130   131    1
   138   121   122    1
   139   121   120    1
   140   132   131    2
   141    50    49    2
   142   122   123    2
