@<TRIPOS>MOLECULE
tmp/2bwmA01.pdb
 84 83 0 0 0
SMALL
GASTEIGER

@<TRIPOS>ATOM
      1  N         47.2630   28.8530   56.1900 N.3   103  ASN103     -0.1225
      2  CA        48.7230   28.7980   56.3350 C.3   103  ASN103      0.1785
      3  C         49.2750   28.0750   55.1090 C.2   103  ASN103      0.2597
      4  O         48.4980   27.6820   54.2250 O.2   103  ASN103     -0.2718
      5  CB        49.1290   28.0770   57.6540 C.3   103  ASN103      0.1169
      6  CG        50.4530   28.5580   58.2040 C.2   103  ASN103      0.2627
      7  OD1       51.3290   29.0220   57.4710 O.2   103  ASN103     -0.2716
      8  ND2       50.6200   28.4040   59.5060 N.am  103  ASN103     -0.0877
      9  N         50.6050   27.9240   55.0510 N.am  104  PHE104     -0.1976
     10  CA        51.2880   27.2640   53.9340 C.3   104  PHE104      0.1639
     11  C         50.9390   27.9320   52.6000 C.2   104  PHE104      0.2290
     12  O         50.8890   27.2700   51.5990 O.2   104  PHE104     -0.2864
     13  CB        51.0010   25.7540   53.8880 C.3   104  PHE104      0.0560
     14  CG        51.4600   25.0240   55.1110 C.ar  104  PHE104     -0.0200
     15  CD1       52.8050   24.6230   55.2150 C.ar  104  PHE104     -0.0042
     16  CD2       50.5810   24.6890   56.1160 C.ar  104  PHE104     -0.0042
     17  CE1       53.2520   23.9350   56.3400 C.ar  104  PHE104     -0.0003
     18  CE2       51.0490   23.9970   57.2840 C.ar  104  PHE104     -0.0003
     19  CZ        52.3730   23.6210   57.3580 C.ar  104  PHE104     -0.0000
     20  N         51.4310   33.1100   55.8030 N.3   109  GLY109     -0.1210
     21  CA        52.7330   32.5800   56.2110 C.3   109  GLY109      0.1956
     22  C         53.8720   32.9160   55.2780 C.2   109  GLY109      0.2612
     23  O         55.0280   32.5070   55.4990 O.2   109  GLY109     -0.2717
     24  N         53.5830   33.6170   54.1880 N.am  110  GLY110     -0.1942
     25  CA        54.6350   34.0810   53.2870 C.3   110  GLY110      0.2014
     26  C         55.3810   32.9570   52.5380 C.2   110  GLY110      0.2638
     27  O         56.6040   33.0330   52.3110 O.2   110  GLY110     -0.2714
     28  N         54.6380   31.9260   52.1390 N.am  111  TRP111     -0.1973
     29  CA        55.2560   30.7440   51.5090 C.3   111  TRP111      0.1640
     30  C         55.5690   31.1100   50.0770 C.2   111  TRP111      0.2290
     31  O         54.7810   31.7970   49.3900 O.2   111  TRP111     -0.2864
     32  CB        54.3610   29.4900   51.6400 C.3   111  TRP111      0.0576
     33  CG        54.4040   28.9770   53.0210 C.ar  111  TRP111      0.0006
     34  CD1       53.8070   29.5510   54.1070 C.ar  111  TRP111      0.0946
     35  CD2       55.1080   27.8230   53.5100 C.ar  111  TRP111      0.0152
     36  NE1       54.1280   28.8580   55.2500 N.ar  111  TRP111     -0.2442
     37  CE2       54.9380   27.7950   54.9030 C.ar  111  TRP111      0.0810
     38  CE3       55.9350   26.8630   52.9160 C.ar  111  TRP111      0.0012
     39  CZ2       55.5100   26.8100   55.7060 C.ar  111  TRP111      0.0191
     40  CZ3       56.5090   25.8790   53.7290 C.ar  111  TRP111      0.0001
     41  CH2       56.2990   25.8700   55.1030 C.ar  111  TRP111      0.0015
     42  N         60.6220   27.4860   49.3090 N.3   116  HIS116     -0.1241
     43  CA        60.0300   26.5750   50.2420 C.3   116  HIS116      0.1621
     44  C         59.4580   25.3600   49.4910 C.2   116  HIS116      0.2264
     45  O         59.1960   25.4320   48.2980 O.2   116  HIS116     -0.2867
     46  CB        58.8910   27.2680   51.0080 C.3   116  HIS116      0.0745
     47  CG        59.3060   28.5470   51.6730 C.ar  116  HIS116      0.0817
     48  ND1       58.6560   29.7380   51.4550 N.ar  116  HIS116     -0.2268
     49  CD2       60.3390   28.8200   52.5250 C.ar  116  HIS116      0.1154
     50  CE1       59.2570   30.6940   52.1550 C.ar  116  HIS116      0.1986
     51  NE2       60.2770   30.1640   52.8210 N.ar  116  HIS116     -0.2212
     52  N         59.9300   25.2150   55.3710 N.3   135  GLY135     -0.1210
     53  CA        59.6620   26.6330   55.3650 C.3   135  GLY135      0.1956
     54  C         60.9190   27.4080   55.7190 C.2   135  GLY135      0.2612
     55  O         62.0220   27.0520   55.2860 O.2   135  GLY135     -0.2717
     56  N         60.7390   28.4730   56.4940 N.am  136  ASP136     -0.1959
     57  CA        61.8730   29.2810   56.8770 C.3   136  ASP136      0.1840
     58  C         62.6120   28.7520   58.1070 C.2   136  ASP136      0.2622
     59  O         63.8410   28.5440   58.0690 O.2   136  ASP136     -0.2715
     60  CB        61.4870   30.7640   56.9600 C.3   136  ASP136      0.1450
     61  CG        62.1410   31.5910   55.8150 C.2   136  ASP136      0.3671
     62  OD1       61.6260   31.6720   54.6510 O.co2 136  ASP136     -0.2456
     63  OD2       63.2840   32.1130   56.0820 O.co2 136  ASP136     -0.2456
     64  N         61.9080   28.5120   59.2010 N.am  137  GLY137     -0.1954
     65  CA        62.5850   28.1220   60.4550 C.3   137  GLY137      0.1869
     66  C         62.8820   26.6240   60.5870 C.2   137  GLY137      0.2309
     67  O         63.5600   26.1850   61.5230 O.2   137  GLY137     -0.2863
     68  N         57.6300   22.4010   59.1100 N.3   140  TYR140     -0.1241
     69  CA        56.3580   22.5900   59.8010 C.3   140  TYR140      0.1605
     70  C         55.3590   21.5270   59.3660 C.2   140  TYR140      0.2264
     71  O         55.2900   21.1710   58.1740 O.2   140  TYR140     -0.2867
     72  CB        55.7800   23.9530   59.4990 C.3   140  TYR140      0.0534
     73  CG        56.6930   25.0830   59.8380 C.ar  140  TYR140     -0.0201
     74  CD1       57.6430   25.5200   58.8970 C.ar  140  TYR140     -0.0009
     75  CD2       56.6560   25.6840   61.0820 C.ar  140  TYR140     -0.0009
     76  CE1       58.5390   26.5660   59.1930 C.ar  140  TYR140      0.0417
     77  CE2       57.5520   26.7620   61.3950 C.ar  140  TYR140      0.0417
     78  CZ        58.4760   27.1840   60.4250 C.ar  140  TYR140      0.1957
     79  OH        59.3750   28.2250   60.6770 O.3   140  TYR140     -0.2866
     80  N         49.7800   24.8790   62.4920 N.3   153  ALA153     -0.1245
     81  CA        51.1240   24.3680   62.1360 C.3   153  ALA153      0.1562
     82  C         52.0540   24.3940   63.3430 C.2   153  ALA153      0.2260
     83  O         51.9930   25.3100   64.1660 O.2   153  ALA153     -0.2867
     84  CB        51.7260   25.1670   60.9220 C.3   153  ALA153      0.0290
@<TRIPOS>BOND
     1    45    44    2
     2    42    43    1
     3    31    30    2
     4    44    43    1
     5    30    29    1
     6    43    46    1
     7    46    47    1
     8    48    47   ar
     9    48    50   ar
    10    29    32    1
    11    29    28    1
    12    12    11    2
    13    32    33    1
    14    47    49   ar
    15    28    26   am
    16    50    51   ar
    17    27    26    2
    18    49    51   ar
    19    26    25    1
    20    11    10    1
    21    38    35   ar
    22    38    40   ar
    23    33    35   ar
    24    33    34   ar
    25    25    24    1
    26    35    37   ar
    27    40    41   ar
    28    13    10    1
    29    13    14    1
    30    10     9    1
    31    34    36   ar
    32    24    22   am
    33     4     3    2
    34    62    61   ar
    35    37    36   ar
    36    37    39   ar
    37     9     3   am
    38    41    39   ar
    39     3     2    1
    40    14    15   ar
    41    14    16   ar
    42    15    17   ar
    43    22    23    2
    44    22    21    1
    45    55    54    2
    46    53    52    1
    47    53    54    1
    48    54    56   am
    49    20    21    1
    50    61    63   ar
    51    61    60    1
    52    16    18   ar
    53     1     2    1
    54     2     5    1
    55    17    19   ar
    56    56    57    1
    57    57    60    1
    58    57    58    1
    59    18    19   ar
    60     7     6    2
    61     5     6    1
    62    59    58    2
    63    58    64   am
    64    71    70    2
    65     6     8   am
    66    74    76   ar
    67    74    73   ar
    68    68    69    1
    69    76    78   ar
    70    64    65    1
    71    70    69    1
    72    72    69    1
    73    72    73    1
    74    73    75   ar
    75    78    79    1
    76    78    77   ar
    77    65    66    1
    78    66    67    2
    79    84    81    1
    80    75    77   ar
    81    81    80    1
    82    81    82    1
    83    82    83    2
