@<TRIPOS>MOLECULE
tmp/2bwmA04.pdb
 89 86 0 0 0
SMALL
GASTEIGER

@<TRIPOS>ATOM
      1  N         77.2160    5.0100   32.4950 N.3   270  ASP270     -0.1239
      2  CA        76.2440    5.5210   31.5470 C.3   270  ASP270      0.1674
      3  C         75.3060    6.3970   32.3550 C.2   270  ASP270      0.2266
      4  O         75.4230    6.4570   33.5890 O.2   270  ASP270     -0.2867
      5  CB        75.4310    4.4030   30.8600 C.3   270  ASP270      0.1410
      6  CG        74.9830    4.7560   29.4360 C.2   270  ASP270      0.3668
      7  OD1       74.6900    5.9250   29.0980 O.co2 270  ASP270     -0.2456
      8  OD2       74.8820    3.8060   28.6310 O.co2 270  ASP270     -0.2456
      9  N         78.3440   10.5880   29.0660 N.3   275  SER275     -0.1202
     10  CA        77.6290    9.8330   28.0430 C.3   275  SER275      0.2020
     11  C         76.6090   10.6790   27.2730 C.2   275  SER275      0.2619
     12  O         75.8250   10.1430   26.4910 O.2   275  SER275     -0.2717
     13  CB        76.9450    8.6200   28.6750 C.3   275  SER275      0.2103
     14  OG        77.9570    7.7290   29.1490 O.3   275  SER275     -0.2182
     15  N         76.6350   12.0000   27.4790 N.am  276  GLY276     -0.1942
     16  CA        75.7830   12.9250   26.7650 C.3   276  GLY276      0.2014
     17  C         74.4570   13.2870   27.4030 C.2   276  GLY276      0.2638
     18  O         73.6600   14.0060   26.7900 O.2   276  GLY276     -0.2714
     19  N         74.2200   12.8260   28.6410 N.am  277  TRP277     -0.1973
     20  CA        72.9710   13.1050   29.2940 C.3   277  TRP277      0.1640
     21  C         72.9130   14.5070   29.8690 C.2   277  TRP277      0.2290
     22  O         73.8650   14.9880   30.5290 O.2   277  TRP277     -0.2864
     23  CB        72.6600   12.0240   30.3290 C.3   277  TRP277      0.0576
     24  CG        72.4440   10.7020   29.6920 C.ar  277  TRP277      0.0006
     25  CD1       73.4040    9.8460   29.2080 C.ar  277  TRP277      0.0946
     26  CD2       71.1820   10.0720   29.4460 C.ar  277  TRP277      0.0152
     27  NE1       72.8030    8.7430   28.6680 N.ar  277  TRP277     -0.2442
     28  CE2       71.4410    8.8580   28.8030 C.ar  277  TRP277      0.0810
     29  CE3       69.8520   10.4340   29.6990 C.ar  277  TRP277      0.0012
     30  CZ2       70.4170    7.9580   28.4500 C.ar  277  TRP277      0.0191
     31  CZ3       68.8390    9.5650   29.3130 C.ar  277  TRP277      0.0001
     32  CH2       69.1260    8.3410   28.6870 C.ar  277  TRP277      0.0015
     33  N         66.7550   15.5780   28.7240 N.3   282  HIS282     -0.1241
     34  CA        66.5400   14.1550   29.0260 C.3   282  HIS282      0.1621
     35  C         65.8700   13.9820   30.3740 C.2   282  HIS282      0.2264
     36  O         65.9970   14.8390   31.2280 O.2   282  HIS282     -0.2867
     37  CB        67.8660   13.3900   29.0070 C.3   282  HIS282      0.0745
     38  CG        68.6240   13.5020   27.7110 C.ar  282  HIS282      0.0817
     39  ND1       69.9440   13.9130   27.6540 N.ar  282  HIS282     -0.2268
     40  CD2       68.2100   13.3870   26.4200 C.ar  282  HIS282      0.1154
     41  CE1       70.3250   13.9550   26.3830 C.ar  282  HIS282      0.1986
     42  NE2       69.2860   13.6860   25.6160 N.ar  282  HIS282     -0.2212
     43  N         66.3580    9.3330   26.5500 N.3   301  GLY301     -0.1210
     44  CA        67.5330    9.9410   25.9430 C.3   301  GLY301      0.1956
     45  C         67.2260   10.5410   24.5830 C.2   301  GLY301      0.2612
     46  O         66.1290   10.9900   24.3280 O.2   301  GLY301     -0.2717
     47  N         68.2180   10.5220   23.7040 N.am  302  ASP302     -0.1959
     48  CA        68.0320   11.0860   22.3540 C.3   302  ASP302      0.1840
     49  C         67.2480   10.1420   21.4470 C.2   302  ASP302      0.2621
     50  O         66.2360   10.5480   20.8670 O.2   302  ASP302     -0.2715
     51  CB        69.3690   11.4690   21.7280 C.3   302  ASP302      0.1450
     52  CG        70.0330   12.6670   22.4240 C.2   302  ASP302      0.3671
     53  OD1       69.3240   13.5690   22.8930 O.co2 302  ASP302     -0.2456
     54  OD2       71.2800   12.7110   22.4350 O.co2 302  ASP302     -0.2456
     55  N         67.6920    8.8870   21.3470 N.am  303  ALA303     -0.1977
     56  CA        67.1010    7.9570   20.4010 C.3   303  ALA303      0.1597
     57  C         65.8660    7.1950   20.9230 C.2   303  ALA303      0.2287
     58  O         65.2390    6.4140   20.1950 O.2   303  ALA303     -0.2864
     59  CB        68.1460    6.9930   19.9330 C.3   303  ALA303      0.0319
     60  N         66.0580    4.1540   27.3930 N.3   306  TYR306     -0.1241
     61  CA        67.1480    3.2660   27.7580 C.3   306  TYR306      0.1605
     62  C         66.9090    2.7470   29.1650 C.2   306  TYR306      0.2264
     63  O         66.5030    3.5170   30.0550 O.2   306  TYR306     -0.2867
     64  CB        68.4700    4.0190   27.7110 C.3   306  TYR306      0.0534
     65  CG        68.8750    4.4150   26.2990 C.ar  306  TYR306     -0.0201
     66  CD1       69.5950    3.5340   25.5150 C.ar  306  TYR306     -0.0009
     67  CD2       68.5120    5.6420   25.7630 C.ar  306  TYR306     -0.0009
     68  CE1       69.9900    3.8520   24.2190 C.ar  306  TYR306      0.0417
     69  CE2       68.8720    5.9670   24.4390 C.ar  306  TYR306      0.0417
     70  CZ        69.6490    5.0720   23.6940 C.ar  306  TYR306      0.1957
     71  OH        70.0380    5.3460   22.3760 O.3   306  TYR306     -0.2866
     72  N         72.9590   -1.6160   29.5080 N.3   319  VAL319     -0.1245
     73  CA        71.9610   -0.6410   29.0870 C.3   319  VAL319      0.1561
     74  C         71.3940   -1.0690   27.7430 C.2   319  VAL319      0.2260
     75  O         72.1560   -1.3890   26.8110 O.2   319  VAL319     -0.2867
     76  CB        72.6060    0.7740   29.0250 C.3   319  VAL319      0.0252
     77  CG1       71.6170    1.7890   28.6670 C.3   319  VAL319      0.0019
     78  CG2       73.2060    1.1110   30.3900 C.3   319  VAL319      0.0019
     79  N         68.2640   -0.1270   24.7540 N.3   321  ARG321     -0.1245
     80  CA        67.2160    0.7450   24.2410 C.3   321  ARG321      0.1563
     81  C         65.9620   -0.0750   24.0910 C.2   321  ARG321      0.2260
     82  O         65.8710   -0.9570   23.2200 O.2   321  ARG321     -0.2867
     83  CB        67.6080    1.4210   22.9340 C.3   321  ARG321      0.0307
     84  CG        66.6790    2.5210   22.5570 C.3   321  ARG321      0.0489
     85  CD        67.2300    3.3430   21.3830 C.3   321  ARG321      0.2205
     86  NE        66.9410    2.6460   20.1280 N.pl3 321  ARG321     -0.0865
     87  CZ        67.7980    1.9450   19.3930 C.cat 321  ARG321      0.5346
     88  NH1       69.0860    1.8460   19.7080 N.pl3 321  ARG321      0.1354
     89  NH2       67.3560    1.3390   18.2930 N.pl3 321  ARG321      0.1354
@<TRIPOS>BOND
     1    89    87    1
     2    87    88    1
     3    87    86    2
     4    59    56    1
     5    86    85    1
     6    58    57    2
     7    56    57    1
     8    56    55    1
     9    50    49    2
    10    55    49   am
    11    85    84    1
    12    49    48    1
    13    51    48    1
    14    51    52    1
    15    48    47    1
    16    71    70    1
    17    52    54   ar
    18    52    53   ar
    19    84    83    1
    20    83    80    1
    21    82    81    2
    22    70    68   ar
    23    70    69   ar
    24    47    45   am
    25    81    80    1
    26    68    66   ar
    27    80    79    1
    28    46    45    2
    29    69    67   ar
    30    45    44    1
    31    66    65   ar
    32    42    41   ar
    33    42    40   ar
    34    67    65   ar
    35    44    43    1
    36    65    64    1
    37    41    39   ar
    38    40    38   ar
    39    12    11    2
    40    16    17    1
    41    16    15    1
    42    18    17    2
    43    75    74    2
    44    11    15   am
    45    11    10    1
    46    60    61    1
    47    17    19   am
    48    39    38   ar
    49    38    37    1
    50    64    61    1
    51    74    73    1
    52    61    62    1
    53    10    13    1
    54    10     9    1
    55    30    32   ar
    56    30    28   ar
    57     8     6   ar
    58    19    20    1
    59    77    76    1
    60    27    28   ar
    61    27    25   ar
    62    13    14    1
    63    32    31   ar
    64    33    34    1
    65    28    26   ar
    66    37    34    1
    67    76    73    1
    68    76    78    1
    69    34    35    1
    70    73    72    1
    71     7     6   ar
    72    62    63    2
    73    25    24   ar
    74    20    21    1
    75    20    23    1
    76    31    29   ar
    77     6     5    1
    78    26    24   ar
    79    26    29   ar
    80    24    23    1
    81    21    22    2
    82    35    36    2
    83     5     2    1
    84     2     3    1
    85     2     1    1
    86     3     4    2
