@<TRIPOS>MOLECULE
tmp/2bwmA00.pdb
 82 82 0 0 0
SMALL
GASTEIGER

@<TRIPOS>ATOM
      1  N         37.7590   24.5990   39.4090 N.3    46  ASN46      -0.1240
      2  CA        38.6290   25.3230   40.3020 C.3    46  ASN46       0.1653
      3  C         40.0420   24.7310   40.1520 C.2    46  ASN46       0.2266
      4  O         40.2310   23.7690   39.3630 O.2    46  ASN46      -0.2867
      5  CB        38.0820   25.2400   41.7440 C.3    46  ASN46       0.1155
      6  CG        38.2770   26.5250   42.5200 C.2    46  ASN46       0.2627
      7  OD1       39.3710   27.0410   42.5550 O.2    46  ASN46      -0.2716
      8  ND2       37.1870   27.0670   43.1120 N.am   46  ASN46      -0.0877
      9  N         40.0020   30.1500   39.1230 N.3    52  GLY52      -0.1210
     10  CA        40.5270   30.4790   40.4420 C.3    52  GLY52       0.1956
     11  C         41.8430   31.1990   40.4780 C.2    52  GLY52       0.2612
     12  O         42.3510   31.4880   41.5470 O.2    52  GLY52      -0.2717
     13  N         42.4200   31.4910   39.3110 N.am   53  GLY53      -0.1942
     14  CA        43.6280   32.2600   39.2540 C.3    53  GLY53       0.2014
     15  C         44.8690   31.5560   39.7750 C.2    53  GLY53       0.2638
     16  O         45.7560   32.1740   40.3840 O.2    53  GLY53      -0.2714
     17  N         44.9310   30.2390   39.5630 N.am   54  TRP54      -0.1973
     18  CA        46.0350   29.4310   40.0840 C.3    54  TRP54       0.1640
     19  C         47.2540   29.6040   39.1900 C.2    54  TRP54       0.2290
     20  O         47.1450   29.6370   37.9440 O.2    54  TRP54      -0.2864
     21  CB        45.6170   27.9560   40.2250 C.3    54  TRP54       0.0576
     22  CG        44.6410   27.7800   41.3580 C.ar   54  TRP54       0.0006
     23  CD1       43.3310   28.2090   41.3910 C.ar   54  TRP54       0.0946
     24  CD2       44.9200   27.2600   42.6540 C.ar   54  TRP54       0.0152
     25  NE1       42.7980   27.9630   42.6160 N.ar   54  TRP54      -0.2442
     26  CE2       43.7500   27.3880   43.4150 C.ar   54  TRP54       0.0810
     27  CE3       46.0470   26.6520   43.2420 C.ar   54  TRP54       0.0012
     28  CZ2       43.6580   26.9210   44.7360 C.ar   54  TRP54       0.0191
     29  CZ3       45.9720   26.2220   44.5550 C.ar   54  TRP54       0.0001
     30  CH2       44.7780   26.3640   45.3000 C.ar   54  TRP54       0.0015
     31  N         51.5740   28.9570   43.6380 N.3    59  HIS59      -0.1241
     32  CA        50.6550   27.9860   44.2690 C.3    59  HIS59       0.1621
     33  C         51.0990   26.5710   43.9580 C.2    59  HIS59       0.2264
     34  O         51.7660   26.3300   42.9540 O.2    59  HIS59      -0.2867
     35  CB        49.2230   28.2080   43.7280 C.3    59  HIS59       0.0745
     36  CG        48.7620   29.6450   43.7860 C.ar   59  HIS59       0.0817
     37  ND1       48.3370   30.3440   42.6670 N.ar   59  HIS59      -0.2268
     38  CD2       48.7690   30.5340   44.8040 C.ar   59  HIS59       0.1154
     39  CE1       48.0420   31.5900   43.0160 C.ar   59  HIS59       0.1986
     40  NE2       48.2940   31.7360   44.3070 N.ar   59  HIS59      -0.2212
     41  N         46.8350   27.5650   47.8980 N.3    78  GLY78      -0.1210
     42  CA        46.4600   28.7260   47.1570 C.3    78  GLY78       0.1956
     43  C         47.0160   30.0330   47.6500 C.2    78  GLY78       0.2612
     44  O         48.0980   30.0990   48.2370 O.2    78  GLY78      -0.2717
     45  N         46.2680   31.1060   47.4050 N.am   79  GLU79      -0.1965
     46  CA        46.7800   32.4050   47.7700 C.3    79  GLU79       0.1733
     47  C         46.7760   32.6180   49.2910 C.2    79  GLU79       0.2616
     48  O         47.7140   33.2260   49.8120 O.2    79  GLU79      -0.2715
     49  CB        45.9630   33.5010   47.1230 C.3    79  GLU79       0.0429
     50  CG        46.6120   34.8690   47.2200 C.3    79  GLU79       0.1163
     51  CD        47.7910   35.0790   46.3140 C.2    79  GLU79       0.3649
     52  OE1       48.1930   34.1570   45.5560 O.co2  79  GLU79      -0.2457
     53  OE2       48.3430   36.2180   46.3090 O.co2  79  GLU79      -0.2457
     54  N         45.6940   32.2030   49.9630 N.am   80  ASN80      -0.1972
     55  CA        45.5290   32.5020   51.4000 C.3    80  ASN80       0.1688
     56  C         45.3060   31.3320   52.3110 C.2    80  ASN80       0.2292
     57  O         45.0010   31.5340   53.4950 O.2    80  ASN80      -0.2864
     58  CB        44.2860   33.3810   51.7020 C.3    80  ASN80       0.1181
     59  CG        43.7860   34.1000   50.5430 C.2    80  ASN80       0.2629
     60  OD1       42.8130   33.6810   49.9240 O.2    80  ASN80      -0.2716
     61  ND2       44.4430   35.2220   50.2230 N.am   80  ASN80      -0.0877
     62  N         43.3350   24.4690   50.3730 N.3    83  TRP83      -0.1241
     63  CA        42.0380   24.0980   49.8670 C.3    83  TRP83       0.1605
     64  C         42.0000   22.6090   49.5250 C.2    83  TRP83       0.2264
     65  O         42.9550   22.0910   48.9390 O.2    83  TRP83      -0.2867
     66  CB        41.7250   24.8690   48.5950 C.3    83  TRP83       0.0550
     67  CG        41.5850   26.3400   48.7630 C.ar   83  TRP83       0.0003
     68  CD1       42.5650   27.2660   48.7250 C.ar   83  TRP83       0.0946
     69  CD2       40.3610   27.0490   48.9350 C.ar   83  TRP83       0.0152
     70  NE1       42.0400   28.5270   48.9110 N.ar   83  TRP83      -0.2442
     71  CE2       40.6800   28.4210   49.0110 C.ar   83  TRP83       0.0810
     72  CE3       39.0250   26.6580   49.0580 C.ar   83  TRP83       0.0012
     73  CZ2       39.7070   29.3920   49.2250 C.ar   83  TRP83       0.0191
     74  CZ3       38.0690   27.6190   49.2440 C.ar   83  TRP83       0.0001
     75  CH2       38.4100   28.9670   49.3320 C.ar   83  TRP83       0.0015
     76  N         36.0290   23.2880   46.5560 N.3    97  PRO97      -0.2116
     77  CA        36.8230   22.8850   47.6700 C.3    97  PRO97       0.1372
     78  C         36.5360   23.7720   48.8880 C.2    97  PRO97       0.2244
     79  O         35.9790   24.8510   48.7640 O.2    97  PRO97      -0.2868
     80  CB        38.2670   23.1300   47.1860 C.3    97  PRO97       0.0268
     81  CG        38.1150   24.2780   46.2320 C.3    97  PRO97       0.0207
     82  CD        36.8020   23.9880   45.5270 C.3    97  PRO97       0.0892
@<TRIPOS>BOND
     1    20    19    2
     2     9    10    1
     3    19    18    1
     4    14    13    1
     5    14    15    1
     6    13    11   am
     7     4     3    2
     8     1     2    1
     9    17    15   am
    10    17    18    1
    11    15    16    2
    12    18    21    1
    13     3     2    1
    14    21    22    1
    15     2     5    1
    16    10    11    1
    17    11    12    2
    18    22    23   ar
    19    22    24   ar
    20    23    25   ar
    21     5     6    1
    22     6     7    2
    23     6     8   am
    24    25    26   ar
    25    24    27   ar
    26    24    26   ar
    27    37    39   ar
    28    37    36   ar
    29    34    33    2
    30    39    40   ar
    31    27    29   ar
    32    26    28   ar
    33    31    32    1
    34    35    36    1
    35    35    32    1
    36    36    38   ar
    37    33    32    1
    38    40    38   ar
    39    29    30   ar
    40    28    30   ar
    41    82    81    1
    42    82    76    1
    43    52    51   ar
    44    81    80    1
    45    53    51   ar
    46    51    50    1
    47    76    77    1
    48    49    50    1
    49    49    46    1
    50    42    43    1
    51    42    41    1
    52    80    77    1
    53    45    43   am
    54    45    46    1
    55    43    44    2
    56    77    78    1
    57    46    47    1
    58    66    67    1
    59    66    63    1
    60    68    67   ar
    61    68    70   ar
    62    67    69   ar
    63    79    78    2
    64    70    71   ar
    65    69    71   ar
    66    69    72   ar
    67    65    64    2
    68    71    73   ar
    69    72    74   ar
    70    73    75   ar
    71    74    75   ar
    72    47    48    2
    73    47    54   am
    74    64    63    1
    75    63    62    1
    76    60    59    2
    77    54    55    1
    78    61    59   am
    79    59    58    1
    80    55    58    1
    81    55    56    1
    82    56    57    2
