@<TRIPOS>MOLECULE
tmp/2bwmA02.pdb
 87 86 0 0 0
SMALL
GASTEIGER

@<TRIPOS>ATOM
      1  N         65.3760   22.2900   61.1940 N.3   159  ASN159     -0.1240
      2  CA        66.3980   22.0510   60.2000 C.3   159  ASN159      0.1653
      3  C         65.7650   21.8380   58.8570 C.2   159  ASN159      0.2266
      4  O         64.5410   21.7780   58.7660 O.2   159  ASN159     -0.2867
      5  CB        67.2920   20.8520   60.5790 C.3   159  ASN159      0.1155
      6  CG        68.7550   21.0570   60.1870 C.2   159  ASN159      0.2627
      7  OD1       69.0310   21.6660   59.1520 O.2   159  ASN159     -0.2716
      8  ND2       69.6880   20.4570   60.9580 N.am  159  ASN159     -0.0877
      9  N         68.3200   27.5020   57.9090 N.3   164  GLN164     -0.1231
     10  CA        69.4850   26.6340   57.9870 C.3   164  GLN164      0.1698
     11  C         70.2410   26.4920   56.6700 C.2   164  GLN164      0.2593
     12  O         71.0300   25.5650   56.4830 O.2   164  GLN164     -0.2718
     13  CB        69.0990   25.2690   58.5610 C.3   164  GLN164      0.0381
     14  CG        68.5120   25.3390   59.9560 C.3   164  GLN164      0.0905
     15  CD        67.0010   25.5950   59.9960 C.2   164  GLN164      0.2608
     16  OE1       66.2610   25.1090   59.1330 O.2   164  GLN164     -0.2717
     17  NE2       66.5330   26.3130   61.0300 N.am  164  GLN164     -0.0878
     18  N         70.0130   27.4450   55.7750 N.am  165  GLY165     -0.1942
     19  CA        70.7830   27.5680   54.5460 C.3   165  GLY165      0.2014
     20  C         70.3300   26.7480   53.3700 C.2   165  GLY165      0.2638
     21  O         71.0130   26.7140   52.3560 O.2   165  GLY165     -0.2714
     22  N         69.1880   26.0670   53.4850 N.am  166  TRP166     -0.1973
     23  CA        68.7030   25.2220   52.4010 C.3   166  TRP166      0.1640
     24  C         68.1360   26.0590   51.2510 C.2   166  TRP166      0.2290
     25  O         67.3390   26.9760   51.4770 O.2   166  TRP166     -0.2864
     26  CB        67.6860   24.2090   52.9650 C.3   166  TRP166      0.0576
     27  CG        68.3830   23.2540   53.8390 C.ar  166  TRP166      0.0006
     28  CD1       68.7870   23.4850   55.1160 C.ar  166  TRP166      0.0946
     29  CD2       68.8500   21.9420   53.5020 C.ar  166  TRP166      0.0152
     30  NE1       69.4800   22.4170   55.5910 N.ar  166  TRP166     -0.2442
     31  CE2       69.5140   21.4390   54.6410 C.ar  166  TRP166      0.0810
     32  CE3       68.7220   21.1160   52.3790 C.ar  166  TRP166      0.0012
     33  CZ2       70.1000   20.1470   54.6720 C.ar  166  TRP166      0.0191
     34  CZ3       69.2940   19.8210   52.4100 C.ar  166  TRP166      0.0001
     35  CH2       69.9980   19.3730   53.5430 C.ar  166  TRP166      0.0015
     36  N         70.4280   22.4380   46.7230 N.3   171  HIS171     -0.1241
     37  CA        70.1270   21.3450   47.6590 C.3   171  HIS171      0.1621
     38  C         68.8740   20.5950   47.2240 C.2   171  HIS171      0.2264
     39  O         68.0310   21.1530   46.4970 O.2   171  HIS171     -0.2867
     40  CB        69.9610   21.9130   49.0780 C.3   171  HIS171      0.0745
     41  CG        71.1040   22.8200   49.4940 C.ar  171  HIS171      0.0817
     42  ND1       70.9360   24.1130   49.9710 N.ar  171  HIS171     -0.2268
     43  CD2       72.4350   22.6100   49.4430 C.ar  171  HIS171      0.1154
     44  CE1       72.1190   24.6470   50.2050 C.ar  171  HIS171      0.1986
     45  NE2       73.0550   23.7640   49.8820 N.ar  171  HIS171     -0.2212
     46  N         72.5570   18.4180   51.2830 N.3   190  GLY190     -0.1210
     47  CA        72.8900   19.7970   51.6750 C.3   190  GLY190      0.1956
     48  C         74.1250   20.3240   51.0550 C.2   190  GLY190      0.2612
     49  O         74.5090   19.9450   49.9410 O.2   190  GLY190     -0.2717
     50  N         74.7140   21.3090   51.7240 N.am  191  GLU191     -0.1965
     51  CA        75.8980   21.9690   51.1840 C.3   191  GLU191      0.1733
     52  C         77.0690   21.0330   50.9880 C.2   191  GLU191      0.2616
     53  O         77.6890   21.0630   49.9260 O.2   191  GLU191     -0.2715
     54  CB        76.2730   23.1710   52.0730 C.3   191  GLU191      0.0429
     55  CG        77.2480   24.1650   51.4540 C.3   191  GLU191      0.1163
     56  CD        76.6780   25.0980   50.3790 C.2   191  GLU191      0.3649
     57  OE1       75.5110   24.9710   49.8640 O.co2 191  GLU191     -0.2457
     58  OE2       77.4260   26.0310   49.9900 O.co2 191  GLU191     -0.2457
     59  N         77.4250   20.2760   52.0220 N.am  192  ASN192     -0.1958
     60  CA        78.4970   19.2990   51.8790 C.3   192  ASN192      0.1819
     61  C         78.2440   17.9330   52.4560 C.2   192  ASN192      0.2621
     62  O         79.1480   17.0930   52.4440 O.2   192  ASN192     -0.2715
     63  CB        79.8370   19.8710   52.3910 C.3   192  ASN192      0.1195
     64  CG        79.9700   19.7780   53.8430 C.2   192  ASN192      0.2630
     65  OD1       78.9810   19.8150   54.5810 O.2   192  ASN192     -0.2716
     66  ND2       81.2230   19.6240   54.3000 N.am  192  ASN192     -0.0877
     67  N         77.0240   17.6730   52.9320 N.am  193  GLN193     -0.1977
     68  CA        76.6630   16.3470   53.3770 C.3   193  GLN193      0.1601
     69  C         75.2230   16.0170   53.0300 C.2   193  GLN193      0.2287
     70  O         74.3640   16.9050   53.0190 O.2   193  GLN193     -0.2864
     71  CB        76.8470   16.1870   54.9130 C.3   193  GLN193      0.0394
     72  CG        78.2730   16.5170   55.2710 C.3   193  GLN193      0.0908
     73  CD        78.6330   16.4320   56.6720 C.2   193  GLN193      0.2608
     74  OE1       79.4670   15.6040   57.0360 O.2   193  GLN193     -0.2717
     75  NE2       78.0930   17.3280   57.4840 N.am  193  GLN193     -0.0878
     76  N         72.1640   14.4000   54.7320 N.3   195  TYR195     -0.1241
     77  CA        71.6590   14.2200   56.1010 C.3   195  TYR195      0.1605
     78  C         70.3600   13.4300   56.0900 C.2   195  TYR195      0.2264
     79  O         69.5400   13.5640   55.1570 O.2   195  TYR195     -0.2867
     80  CB        71.2820   15.5580   56.7440 C.3   195  TYR195      0.0534
     81  CG        72.3760   16.5550   56.9430 C.ar  195  TYR195     -0.0201
     82  CD1       73.0100   16.6740   58.1900 C.ar  195  TYR195     -0.0009
     83  CD2       72.7640   17.4210   55.9240 C.ar  195  TYR195     -0.0009
     84  CE1       74.0410   17.6190   58.3960 C.ar  195  TYR195      0.0417
     85  CE2       73.7920   18.3220   56.1060 C.ar  195  TYR195      0.0417
     86  CZ        74.4060   18.4200   57.3530 C.ar  195  TYR195      0.1957
     87  OH        75.3520   19.3580   57.5910 O.3   195  TYR195     -0.2866
@<TRIPOS>BOND
     1    39    38    2
     2    36    37    1
     3    38    37    1
     4    37    40    1
     5    40    41    1
     6    43    41   ar
     7    43    45   ar
     8    41    42   ar
     9    57    56   ar
    10    45    44   ar
    11    53    52    2
    12    49    48    2
    13    42    44   ar
    14    58    56   ar
    15    56    55    1
    16    52    51    1
    17    52    59   am
    18    48    47    1
    19    48    50   am
    20    51    50    1
    21    51    54    1
    22    24    25    2
    23    24    23    1
    24    46    47    1
    25    55    54    1
    26    60    59    1
    27    60    63    1
    28    60    61    1
    29    21    20    2
    30    32    34   ar
    31    32    29   ar
    32    63    64    1
    33    23    26    1
    34    23    22    1
    35    34    35   ar
    36    62    61    2
    37    61    67   am
    38    67    68    1
    39    26    27    1
    40    70    69    2
    41    69    68    1
    42    20    22   am
    43    20    19    1
    44    68    71    1
    45    29    27   ar
    46    29    31   ar
    47    35    33   ar
    48    27    28   ar
    49    64    66   am
    50    64    65    2
    51    19    18    1
    52    31    33   ar
    53    31    30   ar
    54    76    77    1
    55    71    72    1
    56    28    30   ar
    57    79    78    2
    58    72    73    1
    59    18    11   am
    60    83    85   ar
    61    83    81   ar
    62    78    77    1
    63    77    80    1
    64    85    86   ar
    65    12    11    2
    66    11    10    1
    67    73    74    2
    68    73    75   am
    69    80    81    1
    70    81    82   ar
    71    86    87    1
    72    86    84   ar
    73     9    10    1
    74    10    13    1
    75    82    84   ar
    76    13    14    1
    77     4     3    2
    78     3     2    1
    79    16    15    2
    80     7     6    2
    81    14    15    1
    82    15    17   am
    83     6     5    1
    84     6     8   am
    85     2     5    1
    86     2     1    1
