@<TRIPOS>MOLECULE
tmp/2bwnA01.pdb
 108 105 0 0 0
SMALL
GASTEIGER

@<TRIPOS>ATOM
      1  N         42.3570   16.2840   10.1010 N.3    27  ARG27      -0.1245
      2  CA        42.1700   16.6480    8.7020 C.3    27  ARG27       0.1563
      3  C         42.6690   18.0560    8.4510 C.2    27  ARG27       0.2260
      4  O         42.5160   18.9270    9.2960 O.2    27  ARG27      -0.2867
      5  CB        40.7250   16.5010    8.2450 C.3    27  ARG27       0.0307
      6  CG        40.1800   15.0490    8.3590 C.3    27  ARG27       0.0489
      7  CD        38.8290   14.9330    7.5570 C.3    27  ARG27       0.2205
      8  NE        37.7830   15.7820    8.1270 N.pl3  27  ARG27      -0.0865
      9  CZ        36.6460   16.0660    7.5350 C.cat  27  ARG27       0.5346
     10  NH1       36.3560   15.5570    6.3500 N.pl3  27  ARG27       0.1354
     11  NH2       35.7810   16.8360    8.1530 N.pl3  27  ARG27       0.1354
     12  N         41.5520   18.9690    1.9840 N.3    32  PHE32      -0.1228
     13  CA        40.9570   17.6580    2.0730 C.3    32  PHE32       0.1721
     14  C         41.2480   16.9720    0.7400 C.2    32  PHE32       0.2437
     15  O         41.2510   17.6110   -0.2870 O.2    32  PHE32      -0.2733
     16  CB        39.4520   17.6490    2.3060 C.3    32  PHE32       0.0547
     17  CG        38.9770   18.1540    3.6690 C.ar   32  PHE32      -0.0202
     18  CD1       39.8320   18.3800    4.7580 C.ar   32  PHE32      -0.0042
     19  CD2       37.6000   18.3180    3.8650 C.ar   32  PHE32      -0.0042
     20  CE1       39.3370   18.8410    5.9720 C.ar   32  PHE32      -0.0003
     21  CE2       37.0740   18.7660    5.1030 C.ar   32  PHE32      -0.0003
     22  CZ        37.9590   19.0170    6.1780 C.ar   32  PHE32      -0.0000
     23  N         41.4280   15.6490    0.7340 N.am   33  PRO33      -0.2729
     24  CA        41.3150   14.6460    1.7950 C.3    33  PRO33       0.1401
     25  C         42.6020   14.3710    2.6110 C.2    33  PRO33       0.2269
     26  O         42.7110   13.3050    3.2880 O.2    33  PRO33      -0.2865
     27  CB        40.8750   13.4060    1.0220 C.3    33  PRO33       0.0296
     28  CG        41.5690   13.5620   -0.3210 C.3    33  PRO33       0.0237
     29  CD        41.8350   15.0190   -0.5500 C.3    33  PRO33       0.0939
     30  N         42.7990   10.4790    3.6060 N.3    49  VAL49      -0.1231
     31  CA        41.6200    9.8670    4.2000 C.3    49  VAL49       0.1692
     32  C         40.7560    9.3040    3.0850 C.2    49  VAL49       0.2592
     33  O         40.3710   10.0300    2.1280 O.2    49  VAL49      -0.2718
     34  CB        40.8380   10.8890    5.0070 C.3    49  VAL49       0.0266
     35  CG1       39.4920   10.2680    5.5830 C.3    49  VAL49       0.0020
     36  CG2       41.7300   11.4000    6.1410 C.3    49  VAL49       0.0020
     37  N         40.4430    8.0240    3.1910 N.am   50  TRP50      -0.1976
     38  CA        39.6740    7.3100    2.1580 C.3    50  TRP50       0.1640
     39  C         38.3880    6.6660    2.6370 C.2    50  TRP50       0.2290
     40  O         37.6940    6.0070    1.8400 O.2    50  TRP50      -0.2864
     41  CB        40.5710    6.1830    1.4940 C.3    50  TRP50       0.0576
     42  CG        41.3130    6.6790    0.3060 C.ar   50  TRP50       0.0006
     43  CD1       42.6190    6.9500    0.2280 C.ar   50  TRP50       0.0946
     44  CD2       40.7520    6.9630   -0.9710 C.ar   50  TRP50       0.0152
     45  NE1       42.9350    7.4160   -1.0140 N.ar   50  TRP50      -0.2442
     46  CE2       41.8010    7.4440   -1.7810 C.ar   50  TRP50       0.0810
     47  CE3       39.4650    6.8700   -1.5030 C.ar   50  TRP50       0.0012
     48  CZ2       41.6130    7.8090   -3.1210 C.ar   50  TRP50       0.0191
     49  CZ3       39.2560    7.2750   -2.8080 C.ar   50  TRP50       0.0001
     50  CH2       40.3390    7.7240   -3.6210 C.ar   50  TRP50       0.0015
     51  N         36.1650    8.3740    5.2070 N.3    52  GLY52      -0.1225
     52  CA        35.3180    9.2770    5.9620 C.3    52  GLY52       0.1811
     53  C         33.9050    9.4450    5.4000 C.2    52  GLY52       0.2280
     54  O         33.6030    9.0380    4.2340 O.2    52  GLY52      -0.2866
     55  N         32.3670   12.5850    5.3970 N.3    54  ASP54      -0.1225
     56  CA        32.2140   13.9670    4.9090 C.3    54  ASP54       0.1805
     57  C         32.3350   13.8490    3.4000 C.2    54  ASP54       0.2597
     58  O         33.2440   14.3320    2.7690 O.2    54  ASP54      -0.2718
     59  CB        33.2630   14.8790    5.4810 C.3    54  ASP54       0.1424
     60  CG        33.0760   16.3290    5.0500 C.2    54  ASP54       0.3668
     61  OD1       31.9240   16.7320    4.7570 O.co2  54  ASP54      -0.2456
     62  OD2       34.0710   17.0360    5.0350 O.co2  54  ASP54      -0.2456
     63  N         31.3150   13.2560    2.8430 N.am   55  TYR55      -0.1976
     64  CA        31.3020   12.7900    1.4590 C.3    55  TYR55       0.1639
     65  C         31.5530   13.8080    0.3660 C.2    55  TYR55       0.2290
     66  O         32.0540   13.4510   -0.6770 O.2    55  TYR55      -0.2864
     67  CB        29.9750   12.1470    1.1410 C.3    55  TYR55       0.0560
     68  CG        29.6390   10.8790    1.9200 C.ar   55  TYR55      -0.0198
     69  CD1       30.3710    9.7300    1.7760 C.ar   55  TYR55      -0.0009
     70  CD2       28.5050   10.8380    2.7040 C.ar   55  TYR55      -0.0009
     71  CE1       30.0010    8.6150    2.4260 C.ar   55  TYR55       0.0417
     72  CE2       28.1340    9.7610    3.3260 C.ar   55  TYR55       0.0417
     73  CZ        28.8680    8.6540    3.2150 C.ar   55  TYR55       0.1957
     74  OH        28.3950    7.5680    3.9020 O.3    55  TYR55      -0.2866
     75  N         33.0870   16.9000    0.9270 N.3    57  GLY57      -0.1225
     76  CA        34.0780   17.8710    1.4190 C.3    57  GLY57       0.1811
     77  C         33.4840   19.1640    1.9670 C.2    57  GLY57       0.2280
     78  O         34.1480   20.1740    2.0410 O.2    57  GLY57      -0.2866
     79  N         35.1560    5.7100    0.3780 N.3   375  THR375     -0.1218
     80  CA        34.1670    6.7720    0.2290 C.3   375  THR375      0.1862
     81  C         34.7420    7.8650   -0.6570 C.2   375  THR375      0.2287
     82  O         35.0720    8.9440   -0.1930 O.2   375  THR375     -0.2866
     83  CB        33.7300    7.3440    1.5710 C.3   375  THR375      0.1770
     84  OG1       34.8710    7.7260    2.3130 O.3   375  THR375     -0.2211
     85  CG2       32.9700    6.2760    2.3960 C.3   375  THR375      0.0375
     86  N         35.1950   11.0170   -2.8890 N.3   377  SER377     -0.1217
     87  CA        34.4970   12.2740   -2.7890 C.3   377  SER377      0.1889
     88  C         34.9350   13.1700   -3.9510 C.2   377  SER377      0.2288
     89  O         35.8260   12.8080   -4.7150 O.2   377  SER377     -0.2866
     90  CB        34.8230   12.8840   -1.4500 C.3   377  SER377      0.2089
     91  OG        36.0490   13.4500   -1.5540 O.3   377  SER377     -0.2183
     92  N         36.7570   15.7040   -3.7470 N.3   379  VAL379     -0.1231
     93  CA        38.1610   16.1090   -3.4970 C.3   379  VAL379      0.1692
     94  C         39.1750   14.9970   -3.7640 C.2   379  VAL379      0.2592
     95  O         40.3610   15.2560   -3.7550 O.2   379  VAL379     -0.2718
     96  CB        38.3570   16.7270   -2.0950 C.3   379  VAL379      0.0266
     97  CG1       37.6170   18.0180   -1.9790 C.3   379  VAL379      0.0020
     98  CG2       37.8920   15.7740   -0.9670 C.3   379  VAL379      0.0020
     99  N         38.7080   13.7640   -3.9910 N.am  380  HIS380     -0.1976
    100  CA        39.5730   12.6390   -4.3720 C.3   380  HIS380      0.1656
    101  C         39.6940   12.6500   -5.9300 C.2   380  HIS380      0.2291
    102  O         38.9890   11.9380   -6.6690 O.2   380  HIS380     -0.2864
    103  CB        38.9950   11.3000   -3.9600 C.3   380  HIS380      0.0771
    104  CG        39.0880   11.0010   -2.4890 C.ar  380  HIS380      0.0820
    105  ND1       38.0090   11.0450   -1.6580 N.ar  380  HIS380     -0.2267
    106  CD2       40.1250   10.6020   -1.7280 C.ar  380  HIS380      0.1154
    107  CE1       38.3760   10.6990   -0.4430 C.ar  380  HIS380      0.1986
    108  NE2       39.6520   10.4000   -0.4700 N.ar  380  HIS380     -0.2212
@<TRIPOS>BOND
     1   102   101    2
     2   101   100    1
     3    89    88    2
     4   100    99    1
     5   100   103    1
     6    99    94   am
     7   103   104    1
     8    88    87    1
     9    94    95    2
    10    94    93    1
    11    92    93    1
    12    50    48   ar
    13    50    49   ar
    14    93    96    1
    15    48    46   ar
    16    86    87    1
    17    49    47   ar
    18    87    90    1
    19   104   106   ar
    20   104   105   ar
    21    96    97    1
    22    96    98    1
    23    46    45   ar
    24    46    44   ar
    25   106   108   ar
    26   105   107   ar
    27    91    90    1
    28    47    44   ar
    29    45    43   ar
    30    44    42   ar
    31    66    65    2
    32    81    82    2
    33    81    80    1
    34    29    28    1
    35    29    23    1
    36   108   107   ar
    37    28    27    1
    38    15    14    2
    39    43    42   ar
    40    80    79    1
    41    80    83    1
    42    42    41    1
    43    65    64    1
    44    23    14   am
    45    23    24    1
    46    14    13    1
    47    75    76    1
    48    27    24    1
    49    67    64    1
    50    67    68    1
    51    76    77    1
    52    64    63    1
    53    41    38    1
    54    83    84    1
    55    83    85    1
    56    69    68   ar
    57    69    71   ar
    58    24    25    1
    59    40    39    2
    60    68    70   ar
    61    77    78    2
    62    12    13    1
    63    13    16    1
    64    33    32    2
    65    38    39    1
    66    38    37    1
    67    16    17    1
    68    71    73   ar
    69    25    26    2
    70    70    72   ar
    71    58    57    2
    72    63    57   am
    73    32    37   am
    74    32    31    1
    75    73    72   ar
    76    73    74    1
    77    57    56    1
    78    30    31    1
    79    17    19   ar
    80    17    18   ar
    81    19    21   ar
    82    31    34    1
    83    54    53    2
    84    61    60   ar
    85    18    20   ar
    86    56    55    1
    87    56    59    1
    88    34    35    1
    89    34    36    1
    90    62    60   ar
    91    60    59    1
    92    21    22   ar
    93    51    52    1
    94    53    52    1
    95    20    22   ar
    96    10     9    1
    97     9     8    2
    98     9    11    1
    99     7     8    1
   100     7     6    1
   101     5     6    1
   102     5     2    1
   103     3     2    1
   104     3     4    2
   105     2     1    1
