@<TRIPOS>MOLECULE
tmp/2bwoD03.pdb
 135 125 0 0 0
SMALL
GASTEIGER

@<TRIPOS>ATOM
      1  N        -13.8710  -33.2600   26.7150 N.3    54  ASN54      -0.1240
      2  CA       -12.4420  -33.6170   26.6420 C.3    54  ASN54       0.1653
      3  C        -12.0500  -34.8020   27.5150 C.2    54  ASN54       0.2266
      4  O        -10.8830  -35.1540   27.5810 O.2    54  ASN54      -0.2867
      5  CB       -11.5210  -32.4160   26.8990 C.3    54  ASN54       0.1155
      6  CG       -11.4020  -31.4660   25.6760 C.2    54  ASN54       0.2627
      7  OD1      -11.6990  -31.8380   24.5210 O.2    54  ASN54      -0.2716
      8  ND2      -10.9650  -30.2250   25.9420 N.am   54  ASN54      -0.0877
      9  N         -2.5570  -27.4350   36.9090 N.3   114  SER114     -0.1202
     10  CA        -3.1300  -27.5670   35.5660 C.3   114  SER114      0.2020
     11  C         -2.0000  -27.6220   34.5340 C.2   114  SER114      0.2619
     12  O         -0.8880  -27.1290   34.7980 O.2   114  SER114     -0.2717
     13  CB        -4.0380  -26.3600   35.2710 C.3   114  SER114      0.2103
     14  OG        -3.2880  -25.1880   35.0260 O.3   114  SER114     -0.2182
     15  N         -2.2650  -28.2110   33.3640 N.am  115  ALA115     -0.1965
     16  CA        -1.2650  -28.2010   32.2820 C.3   115  ALA115      0.1728
     17  C         -0.9980  -26.7470   31.8380 C.2   115  ALA115      0.2616
     18  O          0.1390  -26.4020   31.5220 O.2   115  ALA115     -0.2715
     19  CB        -1.6860  -29.0990   31.1190 C.3   115  ALA115      0.0334
     20  N         -2.0420  -25.9080   31.8550 N.am  116  TYR116     -0.1974
     21  CA        -1.8780  -24.4790   31.6190 C.3   116  TYR116      0.1639
     22  C         -0.7670  -23.8990   32.5500 C.2   116  TYR116      0.2290
     23  O          0.2150  -23.3250   32.0570 O.2   116  TYR116     -0.2864
     24  CB        -3.2130  -23.7050   31.8050 C.3   116  TYR116      0.0560
     25  CG        -3.1100  -22.2290   31.4200 C.ar  116  TYR116     -0.0198
     26  CD1       -2.4300  -21.3420   32.2240 C.ar  116  TYR116     -0.0009
     27  CD2       -3.6620  -21.7360   30.2080 C.ar  116  TYR116     -0.0009
     28  CE1       -2.2690  -20.0320   31.8530 C.ar  116  TYR116      0.0417
     29  CE2       -3.5170  -20.3880   29.8470 C.ar  116  TYR116      0.0417
     30  CZ        -2.8120  -19.5580   30.6890 C.ar  116  TYR116      0.1957
     31  OH        -2.6230  -18.2340   30.4150 O.3   116  TYR116     -0.2866
     32  N          2.7760  -25.2560   31.6610 N.3   119  ASN119     -0.1240
     33  CA         3.3370  -24.6220   30.4690 C.3   119  ASN119      0.1653
     34  C          3.8330  -23.2170   30.7640 C.2   119  ASN119      0.2266
     35  O          4.9790  -22.8380   30.4230 O.2   119  ASN119     -0.2867
     36  CB         2.3020  -24.6010   29.3400 C.3   119  ASN119      0.1155
     37  CG         2.3200  -25.8720   28.5310 C.2   119  ASN119      0.2627
     38  OD1        3.3630  -26.5550   28.4330 O.2   119  ASN119     -0.2716
     39  ND2        1.1880  -26.2090   27.9300 N.am  119  ASN119     -0.0877
     40  N         -0.6200  -23.6690   21.8640 N.3   142  HIS142     -0.1241
     41  CA        -1.6770  -23.3100   22.7790 C.3   142  HIS142      0.1621
     42  C         -1.3830  -21.9920   23.5140 C.2   142  HIS142      0.2264
     43  O         -0.2090  -21.6280   23.7270 O.2   142  HIS142     -0.2867
     44  CB        -1.8200  -24.4400   23.7680 C.3   142  HIS142      0.0745
     45  CG        -3.0360  -24.3370   24.6560 C.ar  142  HIS142      0.0817
     46  ND1       -2.9580  -23.9790   25.9920 N.ar  142  HIS142     -0.2268
     47  CD2       -4.3510  -24.6000   24.4110 C.ar  142  HIS142      0.1154
     48  CE1       -4.1720  -24.0060   26.5210 C.ar  142  HIS142      0.1986
     49  NE2       -5.0350  -24.3690   25.5820 N.ar  142  HIS142     -0.2212
     50  N         -1.4000  -21.2980   26.6300 N.3   144  SER144     -0.1217
     51  CA        -0.5690  -21.4590   27.8260 C.3   144  SER144      0.1889
     52  C          0.9090  -21.4010   27.4640 C.2   144  SER144      0.2288
     53  O          1.7490  -20.8750   28.2310 O.2   144  SER144     -0.2866
     54  CB        -0.9040  -22.7640   28.5910 C.3   144  SER144      0.2089
     55  OG        -0.6960  -23.9410   27.8190 O.3   144  SER144     -0.2183
     56  N          3.4480  -28.8470   19.7890 N.3   185  GLU185     -0.1245
     57  CA         2.4750  -29.8400   20.2680 C.3   185  GLU185      0.1567
     58  C          2.5280  -31.1220   19.4480 C.2   185  GLU185      0.2260
     59  O          2.8490  -31.0780   18.2560 O.2   185  GLU185     -0.2867
     60  CB         1.0630  -29.2680   20.1920 C.3   185  GLU185      0.0388
     61  CG         0.8790  -28.0740   21.0750 C.3   185  GLU185      0.1160
     62  CD        -0.5170  -27.5200   21.0220 C.2   185  GLU185      0.3649
     63  OE1       -1.4750  -28.3270   21.1350 O.co2 185  GLU185     -0.2457
     64  OE2       -0.6550  -26.2740   20.8980 O.co2 185  GLU185     -0.2457
     65  N         -0.3100  -33.2570   19.2970 N.3   187  VAL187     -0.1245
     66  CA        -1.6150  -33.1390   18.6490 C.3   187  VAL187      0.1561
     67  C         -2.1610  -31.7310   18.9280 C.2   187  VAL187      0.2260
     68  O         -2.2590  -31.3390   20.0810 O.2   187  VAL187     -0.2867
     69  CB        -2.6110  -34.1830   19.1410 C.3   187  VAL187      0.0252
     70  CG1       -3.9110  -34.0020   18.4060 C.3   187  VAL187      0.0019
     71  CG2       -2.0640  -35.6150   18.9160 C.3   187  VAL187      0.0019
     72  N         -4.9960  -29.1400   19.3650 N.3   189  SER189     -0.1202
     73  CA        -6.3960  -29.2680   19.8380 C.3   189  SER189      0.2020
     74  C         -7.4980  -28.9730   18.8670 C.2   189  SER189      0.2618
     75  O         -8.4850  -29.6930   18.8420 O.2   189  SER189     -0.2717
     76  CB        -6.6480  -28.4800   21.1410 C.3   189  SER189      0.2103
     77  OG        -6.1270  -27.1690   21.1240 O.3   189  SER189     -0.2182
     78  N         -7.3420  -27.9340   18.0620 N.am  190  MET190     -0.1979
     79  CA        -8.4350  -27.4930   17.2070 C.3   190  MET190      0.1605
     80  C         -8.4400  -28.0180   15.7700 C.2   190  MET190      0.2287
     81  O         -9.5190  -28.2660   15.2110 O.2   190  MET190     -0.2864
     82  CB        -8.6280  -25.9770   17.3210 C.3   190  MET190      0.0413
     83  CG        -8.8230  -25.5440   18.8080 C.3   190  MET190      0.0598
     84  SD       -10.4050  -26.1370   19.5090 S.3   190  MET190     -0.1393
     85  CE        -9.9130  -26.6790   21.1890 C.3   190  MET190      0.0692
     86  N          4.1720  -30.4280   24.0920 N.3   214  ASP214     -0.1239
     87  CA         2.9250  -30.4700   24.8140 C.3   214  ASP214      0.1674
     88  C          2.1220  -31.6390   24.2300 C.2   214  ASP214      0.2266
     89  O          1.7470  -31.6090   23.0620 O.2   214  ASP214     -0.2867
     90  CB         2.1890  -29.1620   24.5730 C.3   214  ASP214      0.1410
     91  CG         0.8160  -29.1390   25.1820 C.2   214  ASP214      0.3668
     92  OD1        0.2260  -30.2250   25.2930 O.co2 214  ASP214     -0.2456
     93  OD2        0.3230  -28.0470   25.5300 O.co2 214  ASP214     -0.2456
     94  N         -0.7120  -32.7490   25.5980 N.3   216  VAL216     -0.1231
     95  CA        -1.9890  -32.6470   26.3180 C.3   216  VAL216      0.1692
     96  C         -3.1760  -33.3320   25.6370 C.2   216  VAL216      0.2592
     97  O         -3.9960  -33.9300   26.3110 O.2   216  VAL216     -0.2718
     98  CB        -2.3230  -31.1890   26.6770 C.3   216  VAL216      0.0266
     99  CG1       -3.8090  -30.9670   26.8630 C.3   216  VAL216      0.0020
    100  CG2       -1.5240  -30.7850   27.9230 C.3   216  VAL216      0.0020
    101  N         -3.2450  -33.2660   24.3120 N.am  217  HIS217     -0.1976
    102  CA        -4.3240  -33.9090   23.5670 C.3   217  HIS217      0.1656
    103  C         -3.9030  -35.2670   23.0330 C.2   217  HIS217      0.2291
    104  O         -4.4250  -35.7480   22.0260 O.2   217  HIS217     -0.2864
    105  CB        -4.8460  -32.9770   22.4450 C.3   217  HIS217      0.0771
    106  CG        -5.5570  -31.7750   22.9750 C.ar  217  HIS217      0.0820
    107  ND1       -6.8650  -31.8260   23.4200 N.ar  217  HIS217     -0.2267
    108  CD2       -5.1210  -30.5180   23.2360 C.ar  217  HIS217      0.1154
    109  CE1       -7.2160  -30.6440   23.9010 C.ar  217  HIS217      0.1986
    110  NE2       -6.1760  -29.8320   23.8040 N.ar  217  HIS217     -0.2212
    111  N         -1.4760  -33.2280   30.6330 N.3   245  THR245     -0.1218
    112  CA        -2.5730  -32.9250   31.5110 C.3   245  THR245      0.1862
    113  C         -3.1190  -34.2060   32.1350 C.2   245  THR245      0.2287
    114  O         -3.0250  -35.2920   31.5370 O.2   245  THR245     -0.2866
    115  CB        -3.7660  -32.2120   30.7890 C.3   245  THR245      0.1770
    116  OG1       -4.7950  -31.9230   31.7540 O.3   245  THR245     -0.2211
    117  CG2       -4.3810  -33.1090   29.6850 C.3   245  THR245      0.0375
    118  N         -6.3760  -33.8550   33.1560 N.3   247  ALA247     -0.1231
    119  CA        -7.7720  -33.4600   33.0700 C.3   247  ALA247      0.1694
    120  C         -8.5120  -33.8520   31.8100 C.2   247  ALA247      0.2591
    121  O         -9.7110  -33.5950   31.7120 O.2   247  ALA247     -0.2718
    122  CB        -7.8880  -32.0020   33.2730 C.3   247  ALA247      0.0304
    123  N         -7.8390  -34.4830   30.8390 N.am  248  LYS248     -0.1980
    124  CA        -8.5300  -34.8780   29.6140 C.3   248  LYS248      0.1596
    125  C         -8.7260  -36.3870   29.5340 C.2   248  LYS248      0.2287
    126  O         -9.5960  -36.9280   30.2360 O.2   248  LYS248     -0.2864
    127  CB        -7.9480  -34.2120   28.3690 C.3   248  LYS248      0.0298
    128  CG        -7.8470  -32.6790   28.5620 C.3   248  LYS248      0.0038
    129  CD        -7.6290  -31.9350   27.2740 C.3   248  LYS248      0.0206
    130  CE        -7.2690  -30.4800   27.5120 C.3   248  LYS248      0.1093
    131  NZ        -8.4060  -29.5960   27.8360 N.3   248  LYS248     -0.1314
    132  N         -5.6210  -31.3080   36.8030 N.3   254  GLY254     -0.1225
    133  CA        -4.1780  -31.0140   37.0170 C.3   254  GLY254      0.1811
    134  C         -3.2970  -31.2800   35.8090 C.2   254  GLY254      0.2280
    135  O         -3.7190  -31.9160   34.8350 O.2   254  GLY254     -0.2866
@<TRIPOS>BOND
     1    81    80    2
     2    80    79    1
     3    79    82    1
     4    79    78    1
     5    82    83    1
     6    78    74   am
     7    59    58    2
     8    70    69    1
     9    66    67    1
    10    66    69    1
    11    66    65    1
    12    83    84    1
    13    75    74    2
    14    74    73    1
    15    71    69    1
    16    67    68    2
    17    72    73    1
    18    58    57    1
    19    84    85    1
    20    56    57    1
    21    73    76    1
    22    60    57    1
    23    60    61    1
    24    64    62   ar
    25    62    61    1
    26    62    63   ar
    27    77    76    1
    28    40    41    1
    29   104   103    2
    30   105   106    1
    31   105   102    1
    32    41    42    1
    33    41    44    1
    34   106   108   ar
    35   106   107   ar
    36   103   102    1
    37    89    88    2
    38   108   110   ar
    39   107   109   ar
    40    42    43    2
    41   102   101    1
    42    44    45    1
    43   110   109   ar
    44    86    87    1
    45    88    87    1
    46   101    96   am
    47    47    45   ar
    48    47    49   ar
    49     7     6    2
    50    90    87    1
    51    90    91    1
    52    45    46   ar
    53    91    92   ar
    54    91    93   ar
    55    49    48   ar
    56    94    95    1
    57    96    97    2
    58    96    95    1
    59     6     8   am
    60     6     5    1
    61    46    48   ar
    62    95    98    1
    63    50    51    1
    64     2     1    1
    65     2     5    1
    66     2     3    1
    67    98    99    1
    68    98   100    1
    69   129   130    1
    70   129   128    1
    71    52    51    1
    72    52    53    2
    73   130   131    1
    74     3     4    2
    75    55    54    1
    76    51    54    1
    77    39    37   am
    78   127   128    1
    79   127   124    1
    80    38    37    2
    81    37    36    1
    82    36    33    1
    83   125   124    1
    84   125   126    2
    85   124   123    1
    86   117   115    1
    87    29    27   ar
    88    29    30   ar
    89    27    25   ar
    90    31    30    1
    91    35    34    2
    92    33    34    1
    93    33    32    1
    94   111   112    1
    95    30    28   ar
    96   115   112    1
    97   115   116    1
    98   123   120   am
    99    19    16    1
   100    25    24    1
   101    25    26   ar
   102   112   113    1
   103    18    17    2
   104   114   113    2
   105    21    24    1
   106    21    20    1
   107    21    22    1
   108   121   120    2
   109   120   119    1
   110    17    20   am
   111    17    16    1
   112    28    26   ar
   113    23    22    2
   114    16    15    1
   115   119   118    1
   116   119   122    1
   117    15    11   am
   118    11    12    2
   119    11    10    1
   120   135   134    2
   121    14    13    1
   122    13    10    1
   123    10     9    1
   124   134   133    1
   125   132   133    1
