@<TRIPOS>MOLECULE
tmp/2bwoD02.pdb
 178 170 0 0 0
SMALL
GASTEIGER

@<TRIPOS>ATOM
      1  N        -19.2020  -15.3880   24.3390 N.3    21  ARG21      -0.1245
      2  CA       -19.5230  -16.7770   24.6130 C.3    21  ARG21       0.1563
      3  C        -20.5890  -16.9760   25.6660 C.2    21  ARG21       0.2260
      4  O        -20.5260  -16.3920   26.7520 O.2    21  ARG21      -0.2867
      5  CB       -18.2870  -17.5480   25.0300 C.3    21  ARG21       0.0307
      6  CG       -17.2890  -17.7610   23.9310 C.3    21  ARG21       0.0489
      7  CD       -15.9380  -18.0710   24.5340 C.3    21  ARG21       0.2205
      8  NE       -14.9540  -18.2170   23.4640 N.pl3  21  ARG21      -0.0865
      9  CZ       -13.8360  -18.9370   23.5250 C.cat  21  ARG21       0.5346
     10  NH1      -13.5160  -19.6010   24.6230 N.pl3  21  ARG21       0.1354
     11  NH2      -13.0310  -18.9760   22.4790 N.pl3  21  ARG21       0.1354
     12  N        -13.8710  -33.2600   26.7150 N.3    54  ASN54      -0.1240
     13  CA       -12.4420  -33.6170   26.6420 C.3    54  ASN54       0.1653
     14  C        -12.0500  -34.8020   27.5150 C.2    54  ASN54       0.2266
     15  O        -10.8830  -35.1540   27.5810 O.2    54  ASN54      -0.2867
     16  CB       -11.5210  -32.4160   26.8990 C.3    54  ASN54       0.1155
     17  CG       -11.4020  -31.4660   25.6760 C.2    54  ASN54       0.2627
     18  OD1      -11.6990  -31.8380   24.5210 O.2    54  ASN54      -0.2716
     19  ND2      -10.9650  -30.2250   25.9420 N.am   54  ASN54      -0.0877
     20  N          8.6320  -21.2420   18.5730 N.3   137  SER137     -0.1202
     21  CA         7.3050  -21.6780   18.9000 C.3   137  SER137      0.2020
     22  C          6.4180  -21.8360   17.6480 C.2   137  SER137      0.2619
     23  O          6.3790  -20.9530   16.7610 O.2   137  SER137     -0.2717
     24  CB         6.7260  -20.6940   19.9270 C.3   137  SER137      0.2103
     25  OG         5.3280  -20.8430   20.0890 O.3   137  SER137     -0.2182
     26  N          5.7220  -22.9630   17.5620 N.am  138  ASP138     -0.1959
     27  CA         4.8360  -23.2050   16.4430 C.3   138  ASP138      0.1840
     28  C          3.7200  -22.1560   16.4710 C.2   138  ASP138      0.2623
     29  O          3.1520  -21.8620   17.5440 O.2   138  ASP138     -0.2715
     30  CB         4.2670  -24.6010   16.5250 C.3   138  ASP138      0.1450
     31  CG         3.3480  -24.9120   15.3860 C.2   138  ASP138      0.3671
     32  OD1        3.8170  -25.2600   14.2980 O.co2 138  ASP138     -0.2456
     33  OD2        2.1320  -24.8520   15.5810 O.co2 138  ASP138     -0.2456
     34  N          3.4100  -21.5890   15.3110 N.am  139  SER139     -0.1936
     35  CA         2.4360  -20.5230   15.2580 C.3   139  SER139      0.2055
     36  C          1.0940  -20.9090   15.8840 C.2   139  SER139      0.2643
     37  O          0.4150  -20.0460   16.4370 O.2   139  SER139     -0.2714
     38  CB         2.2830  -19.9430   13.8500 C.3   139  SER139      0.2130
     39  OG         1.1020  -20.4330   13.2370 O.3   139  SER139     -0.2179
     40  N          0.7310  -22.2000   15.8540 N.am  140  LEU140     -0.1963
     41  CA        -0.5250  -22.6390   16.5090 C.3   140  LEU140      0.1728
     42  C         -0.3940  -23.2350   17.9010 C.2   140  LEU140      0.2616
     43  O         -1.3150  -23.9040   18.3660 O.2   140  LEU140     -0.2715
     44  CB        -1.3120  -23.5930   15.6320 C.3   140  LEU140      0.0311
     45  CG        -1.9210  -23.0170   14.3730 C.3   140  LEU140      0.0022
     46  CD1       -2.5940  -24.1090   13.5810 C.3   140  LEU140      0.0001
     47  CD2       -2.9180  -22.0250   14.8150 C.3   140  LEU140      0.0001
     48  N          0.7460  -23.0240   18.5620 N.am  141  ASN141     -0.1958
     49  CA         0.8840  -23.4420   19.9580 C.3   141  ASN141      0.1819
     50  C         -0.2710  -22.8990   20.8390 C.2   141  ASN141      0.2621
     51  O         -0.8220  -21.8220   20.5900 O.2   141  ASN141     -0.2715
     52  CB         2.2090  -22.9720   20.5190 C.3   141  ASN141      0.1195
     53  CG         3.3170  -23.9760   20.3210 C.2   141  ASN141      0.2630
     54  OD1        3.0750  -25.1370   20.0190 O.2   141  ASN141     -0.2716
     55  ND2        4.5430  -23.5430   20.5350 N.am  141  ASN141     -0.0877
     56  N         -0.6200  -23.6690   21.8640 N.am  142  HIS142     -0.1959
     57  CA        -1.6770  -23.3100   22.7790 C.3   142  HIS142      0.1787
     58  C         -1.3830  -21.9920   23.5140 C.2   142  HIS142      0.2620
     59  O         -0.2090  -21.6280   23.7270 O.2   142  HIS142     -0.2715
     60  CB        -1.8200  -24.4400   23.7680 C.3   142  HIS142      0.0785
     61  CG        -3.0360  -24.3370   24.6560 C.ar  142  HIS142      0.0821
     62  ND1       -2.9580  -23.9790   25.9920 N.ar  142  HIS142     -0.2267
     63  CD2       -4.3510  -24.6000   24.4110 C.ar  142  HIS142      0.1154
     64  CE1       -4.1720  -24.0060   26.5210 C.ar  142  HIS142      0.1986
     65  NE2       -5.0350  -24.3690   25.5820 N.ar  142  HIS142     -0.2212
     66  N         -2.4480  -21.2970   23.9160 N.am  143  ALA143     -0.1977
     67  CA        -2.3290  -20.0630   24.7090 C.3   143  ALA143      0.1597
     68  C         -1.3430  -20.1860   25.9040 C.2   143  ALA143      0.2287
     69  O         -0.5290  -19.2840   26.1440 O.2   143  ALA143     -0.2864
     70  CB        -3.6800  -19.6230   25.2030 C.3   143  ALA143      0.0319
     71  N          2.1450  -19.8380   24.7430 N.3   146  ILE146     -0.1245
     72  CA         2.3960  -18.4700   24.2930 C.3   146  ILE146      0.1561
     73  C          2.5960  -17.5810   25.5140 C.2   146  ILE146      0.2260
     74  O          3.5630  -16.8360   25.6080 O.2   146  ILE146     -0.2867
     75  CB         1.2040  -17.9540   23.4050 C.3   146  ILE146      0.0252
     76  CG1        1.1140  -18.8160   22.1230 C.3   146  ILE146      0.0019
     77  CG2        1.3680  -16.4360   23.1130 C.3   146  ILE146      0.0019
     78  CD1       -0.1330  -18.6300   21.3180 C.3   146  ILE146      0.0001
     79  N          5.9690  -18.2730   27.1290 N.3   149  ILE149     -0.1231
     80  CA         7.0400  -17.8490   26.2290 C.3   149  ILE149      0.1692
     81  C          7.2900  -16.3360   26.2430 C.2   149  ILE149      0.2591
     82  O          8.4450  -15.9050   26.1520 O.2   149  ILE149     -0.2718
     83  CB         6.8340  -18.4290   24.7780 C.3   149  ILE149      0.0266
     84  CG1        6.9560  -19.9520   24.7930 C.3   149  ILE149      0.0019
     85  CG2        7.8610  -17.8870   23.7970 C.3   149  ILE149      0.0020
     86  CD1        6.5560  -20.5970   23.5360 C.3   149  ILE149      0.0001
     87  N          6.2140  -15.5490   26.4090 N.am  150  LYS150     -0.1980
     88  CA         6.2910  -14.0700   26.4670 C.3   150  LYS150      0.1596
     89  C          6.4440  -13.4920   27.8640 C.2   150  LYS150      0.2287
     90  O          6.9930  -12.4200   27.9990 O.2   150  LYS150     -0.2864
     91  CB         5.0470  -13.4090   25.9180 C.3   150  LYS150      0.0298
     92  CG         4.5010  -13.8870   24.6440 C.3   150  LYS150      0.0038
     93  CD         3.3030  -13.0130   24.2910 C.3   150  LYS150      0.0206
     94  CE         2.3480  -12.7910   25.4580 C.3   150  LYS150      0.1093
     95  NZ         1.6190  -11.5070   25.2850 N.3   150  LYS150     -0.1314
     96  N         11.9710  -14.6460   21.1230 N.3   156  LYS156     -0.1245
     97  CA        11.0800  -15.7190   20.6320 C.3   156  LYS156      0.1561
     98  C         11.0870  -15.6840   19.1290 C.2   156  LYS156      0.2260
     99  O         11.3520  -14.6610   18.5560 O.2   156  LYS156     -0.2867
    100  CB         9.6260  -15.5750   21.1280 C.3   156  LYS156      0.0271
    101  CG         8.9230  -14.3270   20.6580 C.3   156  LYS156      0.0035
    102  CD         7.6110  -14.1070   21.3550 C.3   156  LYS156      0.0206
    103  CE         7.3250  -12.6070   21.5230 C.3   156  LYS156      0.1093
    104  NZ         7.3910  -11.8680   20.2230 N.3   156  LYS156     -0.1314
    105  N          8.5530  -17.2370   15.9590 N.3   158  ILE158     -0.1245
    106  CA         7.3600  -17.9790   15.6670 C.3   158  ILE158      0.1561
    107  C          7.5290  -18.6280   14.2990 C.2   158  ILE158      0.2260
    108  O          7.7210  -17.9180   13.3210 O.2   158  ILE158     -0.2867
    109  CB         6.1330  -17.0330   15.7350 C.3   158  ILE158      0.0252
    110  CG1        5.9610  -16.5430   17.1610 C.3   158  ILE158      0.0019
    111  CG2        4.8460  -17.7250   15.3120 C.3   158  ILE158      0.0019
    112  CD1        5.0460  -15.3310   17.2660 C.3   158  ILE158      0.0001
    113  N         -4.9960  -29.1400   19.3650 N.3   189  SER189     -0.1202
    114  CA        -6.3960  -29.2680   19.8380 C.3   189  SER189      0.2020
    115  C         -7.4980  -28.9730   18.8670 C.2   189  SER189      0.2618
    116  O         -8.4850  -29.6930   18.8420 O.2   189  SER189     -0.2717
    117  CB        -6.6480  -28.4800   21.1410 C.3   189  SER189      0.2103
    118  OG        -6.1270  -27.1690   21.1240 O.3   189  SER189     -0.2182
    119  N         -7.3420  -27.9340   18.0620 N.am  190  MET190     -0.1979
    120  CA        -8.4350  -27.4930   17.2070 C.3   190  MET190      0.1605
    121  C         -8.4400  -28.0180   15.7700 C.2   190  MET190      0.2287
    122  O         -9.5190  -28.2660   15.2110 O.2   190  MET190     -0.2864
    123  CB        -8.6280  -25.9770   17.3210 C.3   190  MET190      0.0413
    124  CG        -8.8230  -25.5440   18.8080 C.3   190  MET190      0.0598
    125  SD       -10.4050  -26.1370   19.5090 S.3   190  MET190     -0.1393
    126  CE        -9.9130  -26.6790   21.1890 C.3   190  MET190      0.0692
    127  N         -3.2450  -33.2660   24.3120 N.3   217  HIS217     -0.1241
    128  CA        -4.3240  -33.9090   23.5670 C.3   217  HIS217      0.1621
    129  C         -3.9030  -35.2670   23.0330 C.2   217  HIS217      0.2264
    130  O         -4.4250  -35.7480   22.0260 O.2   217  HIS217     -0.2867
    131  CB        -4.8460  -32.9770   22.4450 C.3   217  HIS217      0.0745
    132  CG        -5.5570  -31.7750   22.9750 C.ar  217  HIS217      0.0817
    133  ND1       -6.8650  -31.8260   23.4200 N.ar  217  HIS217     -0.2268
    134  CD2       -5.1210  -30.5180   23.2360 C.ar  217  HIS217      0.1154
    135  CE1       -7.2160  -30.6440   23.9010 C.ar  217  HIS217      0.1986
    136  NE2       -6.1760  -29.8320   23.8040 N.ar  217  HIS217     -0.2212
    137  N         -7.8390  -34.4830   30.8390 N.3   248  LYS248     -0.1245
    138  CA        -8.5300  -34.8780   29.6140 C.3   248  LYS248      0.1561
    139  C         -8.7260  -36.3870   29.5340 C.2   248  LYS248      0.2260
    140  O         -9.5960  -36.9280   30.2360 O.2   248  LYS248     -0.2867
    141  CB        -7.9480  -34.2120   28.3690 C.3   248  LYS248      0.0271
    142  CG        -7.8470  -32.6790   28.5620 C.3   248  LYS248      0.0035
    143  CD        -7.6290  -31.9350   27.2740 C.3   248  LYS248      0.0206
    144  CE        -7.2690  -30.4800   27.5120 C.3   248  LYS248      0.1093
    145  NZ        -8.4060  -29.5960   27.8360 N.3   248  LYS248     -0.1314
    146  N        -16.9980  -23.1910   18.5130 N.3   361  ILE361     -0.1245
    147  CA       -15.6590  -22.7170   18.7970 C.3   361  ILE361      0.1561
    148  C        -15.2720  -21.4830   17.9510 C.2   361  ILE361      0.2260
    149  O        -15.2760  -21.5420   16.7150 O.2   361  ILE361     -0.2867
    150  CB       -14.5950  -23.8710   18.8000 C.3   361  ILE361      0.0252
    151  CG1      -14.7810  -24.7490   20.0400 C.3   361  ILE361      0.0019
    152  CG2      -13.1920  -23.3030   18.9620 C.3   361  ILE361      0.0019
    153  CD1      -15.3850  -26.0520   19.8080 C.3   361  ILE361      0.0001
    154  N        -12.9320  -17.2660   18.0710 N.3   363  PHE363     -0.1228
    155  CA       -11.7380  -16.5550   18.5340 C.3   363  PHE363      0.1721
    156  C        -11.8890  -16.1940   20.0560 C.2   363  PHE363      0.2437
    157  O        -12.9750  -15.7370   20.4890 O.2   363  PHE363     -0.2733
    158  CB       -11.4310  -15.3420   17.6340 C.3   363  PHE363      0.0547
    159  CG       -10.0990  -14.6850   17.9400 C.ar  363  PHE363     -0.0202
    160  CD1       -8.8820  -15.2670   17.4980 C.ar  363  PHE363     -0.0042
    161  CD2      -10.0350  -13.5240   18.7170 C.ar  363  PHE363     -0.0042
    162  CE1       -7.6220  -14.6590   17.8200 C.ar  363  PHE363     -0.0003
    163  CE2       -8.8030  -12.9330   19.0380 C.ar  363  PHE363     -0.0003
    164  CZ        -7.5970  -13.4930   18.5840 C.ar  363  PHE363     -0.0000
    165  N        -10.7920  -16.3530   20.8640 N.am  364  PRO364     -0.2718
    166  CA        -9.4040  -16.6410   20.4830 C.3   364  PRO364      0.1535
    167  C         -8.9930  -18.1030   20.5440 C.2   364  PRO364      0.2599
    168  O         -7.7980  -18.4130   20.4920 O.2   364  PRO364     -0.2715
    169  CB        -8.5850  -15.8190   21.5080 C.3   364  PRO364      0.0310
    170  CG        -9.4490  -15.7570   22.7370 C.3   364  PRO364      0.0237
    171  CD       -10.8880  -16.2460   22.3330 C.3   364  PRO364      0.0939
    172  N         -9.9440  -19.0220   20.6570 N.am  365  THR365     -0.1951
    173  CA        -9.5580  -20.4430   20.6470 C.3   365  THR365      0.1897
    174  C         -9.0990  -20.8830   19.2390 C.2   365  THR365      0.2313
    175  O         -8.2390  -21.7570   19.1210 O.2   365  THR365     -0.2863
    176  CB       -10.6770  -21.3820   21.1040 C.3   365  THR365      0.1794
    177  OG1      -11.2590  -20.9120   22.3350 O.3   365  THR365     -0.2208
    178  CG2      -10.1210  -22.8500   21.2610 C.3   365  THR365      0.0378
@<TRIPOS>BOND
     1    39    38    1
     2   108   107    2
     3    46    45    1
     4    38    35    1
     5    32    31   ar
     6   107   106    1
     7    45    47    1
     8    45    44    1
     9   122   121    2
    10    35    34    1
    11    35    36    1
    12    34    28   am
    13   111   109    1
    14    31    33   ar
    15    31    30    1
    16    44    41    1
    17   106   109    1
    18   106   105    1
    19   109   110    1
    20   121   120    1
    21    40    36   am
    22    40    41    1
    23    36    37    2
    24    27    28    1
    25    27    30    1
    26    27    26    1
    27    28    29    2
    28    41    42    1
    29   149   148    2
    30    23    22    2
    31   110   112    1
    32   120   123    1
    33   120   119    1
    34   123   124    1
    35   160   162   ar
    36   160   159   ar
    37    26    22   am
    38   158   159    1
    39   158   155    1
    40    22    21    1
    41   162   164   ar
    42    42    43    2
    43    42    48   am
    44   159   161   ar
    45   148   147    1
    46   119   115   am
    47   154   155    1
    48   146   147    1
    49   155   156    1
    50    99    98    2
    51    48    49    1
    52    20    21    1
    53   164   163   ar
    54   161   163   ar
    55   147   150    1
    56   150   152    1
    57   150   151    1
    58   124   125    1
    59   116   115    2
    60   115   114    1
    61    21    24    1
    62   175   174    2
    63    98    97    1
    64   174   173    1
    65   113   114    1
    66   125   126    1
    67   153   151    1
    68   114   117    1
    69    24    25    1
    70    49    52    1
    71    49    50    1
    72    54    53    2
    73   156   157    2
    74   156   165   am
    75   104   103    1
    76    53    52    1
    77    53    55   am
    78   166   167    1
    79   166   165    1
    80   166   169    1
    81   168   167    2
    82   167   172   am
    83    51    50    2
    84    97    96    1
    85    97   100    1
    86   173   172    1
    87   173   176    1
    88   101   100    1
    89   101   102    1
    90    50    56   am
    91   165   171    1
    92   176   178    1
    93   176   177    1
    94   118   117    1
    95    78    76    1
    96   102   103    1
    97   169   170    1
    98    56    57    1
    99   130   129    2
   100    76    75    1
   101   171   170    1
   102   131   132    1
   103   131   128    1
   104    11     9    1
   105    57    58    1
   106    57    60    1
   107   132   134   ar
   108   132   133   ar
   109   129   128    1
   110    77    75    1
   111   134   136   ar
   112    75    72    1
   113   133   135   ar
   114     8     9    2
   115     8     7    1
   116    58    59    2
   117    58    66   am
   118     9    10    1
   119    86    84    1
   120   128   127    1
   121    60    61    1
   122    85    83    1
   123   136   135   ar
   124    66    67    1
   125     6     7    1
   126     6     5    1
   127    93    92    1
   128    93    94    1
   129    72    71    1
   130    72    73    1
   131     1     2    1
   132    63    61   ar
   133    63    65   ar
   134    18    17    2
   135     2     5    1
   136     2     3    1
   137    92    91    1
   138    61    62   ar
   139    67    70    1
   140    67    68    1
   141    83    84    1
   142    83    80    1
   143    95    94    1
   144    73    74    2
   145    65    64   ar
   146     3     4    2
   147    17    19   am
   148    17    16    1
   149    68    69    2
   150    91    88    1
   151    62    64   ar
   152    82    81    2
   153    80    81    1
   154    80    79    1
   155    81    87   am
   156    87    88    1
   157    88    89    1
   158    13    12    1
   159    13    16    1
   160    13    14    1
   161   143   144    1
   162   143   142    1
   163   144   145    1
   164    14    15    2
   165    89    90    2
   166   141   142    1
   167   141   138    1
   168   139   138    1
   169   139   140    2
   170   138   137    1
