@<TRIPOS>MOLECULE
tmp/2bwpD01.pdb
 164 153 0 0 0
SMALL
GASTEIGER

@<TRIPOS>ATOM
      1  N        -13.8470  -33.3360   26.7820 N.3    54  ASN54      -0.1240
      2  CA       -12.4640  -33.7780   26.6870 C.3    54  ASN54       0.1653
      3  C        -12.1610  -34.9740   27.5910 C.2    54  ASN54       0.2266
      4  O        -11.0230  -35.4080   27.6810 O.2    54  ASN54      -0.2867
      5  CB       -11.4810  -32.6300   26.9250 C.3    54  ASN54       0.1155
      6  CG       -11.3110  -31.6830   25.6980 C.2    54  ASN54       0.2627
      7  OD1      -11.7690  -31.9490   24.5640 O.2    54  ASN54      -0.2716
      8  ND2      -10.6200  -30.5720   25.9370 N.am   54  ASN54      -0.0877
      9  N         -2.7150  -27.6070   36.9940 N.3   114  SER114     -0.1202
     10  CA        -3.2980  -27.7360   35.6790 C.3   114  SER114      0.2020
     11  C         -2.1330  -27.8250   34.6850 C.2   114  SER114      0.2619
     12  O         -1.0090  -27.4060   35.0160 O.2   114  SER114     -0.2717
     13  CB        -4.0770  -26.4620   35.4120 C.3   114  SER114      0.2103
     14  OG        -3.1360  -25.4180   35.1070 O.3   114  SER114     -0.2182
     15  N         -2.4070  -28.3360   33.4780 N.am  115  ALA115     -0.1965
     16  CA        -1.4000  -28.3510   32.3970 C.3   115  ALA115      0.1728
     17  C         -1.0940  -26.9020   31.9740 C.2   115  ALA115      0.2616
     18  O          0.0470  -26.5640   31.6730 O.2   115  ALA115     -0.2715
     19  CB        -1.9220  -29.1630   31.2110 C.3   115  ALA115      0.0334
     20  N         -2.1250  -26.0470   32.0000 N.am  116  TYR116     -0.1974
     21  CA        -1.9550  -24.6060   31.7510 C.3   116  TYR116      0.1639
     22  C         -0.8310  -24.0390   32.6380 C.2   116  TYR116      0.2290
     23  O          0.1350  -23.4420   32.0990 O.2   116  TYR116     -0.2864
     24  CB        -3.2540  -23.8000   32.0190 C.3   116  TYR116      0.0560
     25  CG        -3.1780  -22.3600   31.5360 C.ar  116  TYR116     -0.0198
     26  CD1       -2.4550  -21.3990   32.2460 C.ar  116  TYR116     -0.0009
     27  CD2       -3.8190  -21.9540   30.3210 C.ar  116  TYR116     -0.0009
     28  CE1       -2.3460  -20.0640   31.7610 C.ar  116  TYR116      0.0417
     29  CE2       -3.7150  -20.6350   29.8520 C.ar  116  TYR116      0.0417
     30  CZ        -2.9800  -19.7120   30.5810 C.ar  116  TYR116      0.1957
     31  OH        -2.8820  -18.4420   30.1520 O.3   116  TYR116     -0.2866
     32  N          2.7280  -25.3650   31.7490 N.3   119  ASN119     -0.1240
     33  CA         3.3460  -24.7400   30.5680 C.3   119  ASN119      0.1653
     34  C          3.8360  -23.3240   30.8920 C.2   119  ASN119      0.2266
     35  O          4.9950  -22.9310   30.5950 O.2   119  ASN119     -0.2867
     36  CB         2.3550  -24.6990   29.3990 C.3   119  ASN119      0.1155
     37  CG         2.3020  -26.0010   28.6260 C.2   119  ASN119      0.2627
     38  OD1        3.3210  -26.6720   28.4390 O.2   119  ASN119     -0.2716
     39  ND2        1.1390  -26.3220   28.1020 N.am  119  ASN119     -0.0877
     40  N         -0.7610  -23.6960   21.9510 N.3   142  HIS142     -0.1241
     41  CA        -1.8250  -23.3890   22.8800 C.3   142  HIS142      0.1621
     42  C         -1.5190  -22.0930   23.6610 C.2   142  HIS142      0.2264
     43  O         -0.3420  -21.7700   23.8810 O.2   142  HIS142     -0.2867
     44  CB        -2.0310  -24.6020   23.8210 C.3   142  HIS142      0.0745
     45  CG        -3.0990  -24.4000   24.8650 C.ar  142  HIS142      0.0817
     46  ND1       -4.4440  -24.5800   24.6100 N.ar  142  HIS142     -0.2268
     47  CD2       -3.0110  -24.0390   26.1620 C.ar  142  HIS142      0.1154
     48  CE1       -5.1380  -24.2930   25.6900 C.ar  142  HIS142      0.1986
     49  NE2       -4.2900  -23.9760   26.6530 N.ar  142  HIS142     -0.2212
     50  N         -1.5850  -21.3670   26.8050 N.3   144  SER144     -0.1217
     51  CA        -0.7410  -21.6170   27.9830 C.3   144  SER144      0.1889
     52  C          0.7610  -21.5320   27.6470 C.2   144  SER144      0.2288
     53  O          1.5740  -21.0100   28.4320 O.2   144  SER144     -0.2866
     54  CB        -1.0820  -22.9670   28.6420 C.3   144  SER144      0.2089
     55  OG        -0.6310  -24.0780   27.8720 O.3   144  SER144     -0.2183
     56  N          3.3420  -29.0060   19.9080 N.3   185  GLU185     -0.1245
     57  CA         2.3780  -29.9910   20.4020 C.3   185  GLU185      0.1567
     58  C          2.4120  -31.2460   19.5580 C.2   185  GLU185      0.2260
     59  O          2.7130  -31.1920   18.3640 O.2   185  GLU185     -0.2867
     60  CB         0.9690  -29.4250   20.3760 C.3   185  GLU185      0.0388
     61  CG         0.7970  -28.1500   21.1560 C.3   185  GLU185      0.1160
     62  CD        -0.6370  -27.6490   21.1300 C.2   185  GLU185      0.3649
     63  OE1       -1.5530  -28.4880   21.1110 O.co2 185  GLU185     -0.2457
     64  OE2       -0.8670  -26.4180   21.1470 O.co2 185  GLU185     -0.2457
     65  N         -0.4470  -33.3300   19.3240 N.3   187  VAL187     -0.1245
     66  CA        -1.7580  -33.2050   18.7000 C.3   187  VAL187      0.1561
     67  C         -2.3170  -31.7970   18.9750 C.2   187  VAL187      0.2260
     68  O         -2.5180  -31.4410   20.1280 O.2   187  VAL187     -0.2867
     69  CB        -2.8140  -34.2680   19.2410 C.3   187  VAL187      0.0252
     70  CG1       -4.1430  -34.1280   18.4950 C.3   187  VAL187      0.0019
     71  CG2       -2.2990  -35.7150   19.1270 C.3   187  VAL187      0.0019
     72  N         -5.1080  -29.1930   19.3360 N.3   189  SER189     -0.1202
     73  CA        -6.5110  -29.3200   19.8270 C.3   189  SER189      0.2020
     74  C         -7.6410  -29.0350   18.9020 C.2   189  SER189      0.2618
     75  O         -8.6710  -29.6670   19.0250 O.2   189  SER189     -0.2717
     76  CB        -6.7390  -28.4680   21.0890 C.3   189  SER189      0.2103
     77  OG        -5.8210  -27.3870   21.1800 O.3   189  SER189     -0.2182
     78  N         -7.4670  -28.0990   17.9730 N.am  190  MET190     -0.1979
     79  CA        -8.5840  -27.6310   17.1750 C.3   190  MET190      0.1605
     80  C         -8.5970  -28.1200   15.7580 C.2   190  MET190      0.2287
     81  O         -9.6570  -28.3960   15.2070 O.2   190  MET190     -0.2864
     82  CB        -8.6730  -26.1150   17.3000 C.3   190  MET190      0.0413
     83  CG        -8.9110  -25.6850   18.8080 C.3   190  MET190      0.0598
     84  SD       -10.6130  -26.1710   19.3110 S.3   190  MET190     -0.1393
     85  CE       -10.4310  -26.2770   21.1240 C.3   190  MET190      0.0692
     86  N          4.0830  -30.5320   24.1320 N.3   214  ASP214     -0.1239
     87  CA         2.8310  -30.5720   24.8590 C.3   214  ASP214      0.1674
     88  C          2.0450  -31.7100   24.2540 C.2   214  ASP214      0.2266
     89  O          1.7070  -31.6700   23.0770 O.2   214  ASP214     -0.2867
     90  CB         2.1130  -29.2650   24.6500 C.3   214  ASP214      0.1410
     91  CG         0.6870  -29.2220   25.2650 C.2   214  ASP214      0.3668
     92  OD1       -0.0240  -30.2520   25.2520 O.co2 214  ASP214     -0.2456
     93  OD2        0.2570  -28.1200   25.7000 O.co2 214  ASP214     -0.2456
     94  N         -0.8420  -32.8630   25.6740 N.3   216  VAL216     -0.1231
     95  CA        -2.1250  -32.7680   26.4180 C.3   216  VAL216      0.1692
     96  C         -3.3070  -33.4620   25.7240 C.2   216  VAL216      0.2592
     97  O         -4.1310  -34.0920   26.3930 O.2   216  VAL216     -0.2718
     98  CB        -2.4480  -31.3070   26.8420 C.3   216  VAL216      0.0266
     99  CG1       -3.8800  -31.0460   26.9950 C.3   216  VAL216      0.0020
    100  CG2       -1.7480  -30.9740   28.0930 C.3   216  VAL216      0.0020
    101  N         -3.3420  -33.3990   24.3950 N.am  217  HIS217     -0.1976
    102  CA        -4.3820  -34.0310   23.6180 C.3   217  HIS217      0.1656
    103  C         -3.9490  -35.3670   23.0590 C.2   217  HIS217      0.2291
    104  O         -4.4910  -35.8240   22.0380 O.2   217  HIS217     -0.2864
    105  CB        -4.8710  -33.0850   22.4890 C.3   217  HIS217      0.0771
    106  CG        -5.6510  -31.9280   23.0110 C.ar  217  HIS217      0.0820
    107  ND1       -6.9970  -32.0230   23.3240 N.ar  217  HIS217     -0.2267
    108  CD2       -5.2590  -30.6900   23.4000 C.ar  217  HIS217      0.1154
    109  CE1       -7.4080  -30.8780   23.8440 C.ar  217  HIS217      0.1986
    110  NE2       -6.3710  -30.0560   23.9190 N.ar  217  HIS217     -0.2212
    111  N         -1.6260  -33.3050   30.6930 N.3   245  THR245     -0.1218
    112  CA        -2.6960  -33.0050   31.5930 C.3   245  THR245      0.1862
    113  C         -3.2120  -34.2760   32.1950 C.2   245  THR245      0.2287
    114  O         -3.0670  -35.3450   31.6000 O.2   245  THR245     -0.2866
    115  CB        -3.9070  -32.2620   30.9220 C.3   245  THR245      0.1770
    116  OG1       -4.9080  -31.9750   31.9340 O.3   245  THR245     -0.2211
    117  CG2       -4.5840  -33.1190   29.8410 C.3   245  THR245      0.0375
    118  N         -6.4500  -33.9870   33.1750 N.3   247  ALA247     -0.1231
    119  CA        -7.8570  -33.5680   33.1040 C.3   247  ALA247      0.1694
    120  C         -8.6300  -34.0030   31.8760 C.2   247  ALA247      0.2591
    121  O         -9.8330  -33.8150   31.8120 O.2   247  ALA247     -0.2718
    122  CB        -7.9450  -32.0770   33.2250 C.3   247  ALA247      0.0304
    123  N         -7.9650  -34.5510   30.8740 N.am  248  LYS248     -0.1980
    124  CA        -8.6630  -34.9350   29.6730 C.3   248  LYS248      0.1596
    125  C         -8.8440  -36.4580   29.5570 C.2   248  LYS248      0.2287
    126  O         -9.6660  -37.0070   30.2770 O.2   248  LYS248     -0.2864
    127  CB        -8.0580  -34.2420   28.4900 C.3   248  LYS248      0.0298
    128  CG        -8.2160  -32.7360   28.5930 C.3   248  LYS248      0.0038
    129  CD        -7.1700  -32.0160   27.8190 C.3   248  LYS248      0.0206
    130  CE        -7.6690  -30.7710   27.2120 C.3   248  LYS248      0.1093
    131  NZ        -8.0480  -29.7340   28.1270 N.3   248  LYS248     -0.1314
    132  N         -8.1350  -34.1340   36.9340 N.3   253  PHE253     -0.1227
    133  CA        -7.7560  -32.7260   36.9710 C.3   253  PHE253      0.1736
    134  C         -6.2810  -32.6070   37.2820 C.2   253  PHE253      0.2596
    135  O         -5.6840  -33.5250   37.8720 O.2   253  PHE253     -0.2718
    136  CB        -8.5300  -32.0370   38.0900 C.3   253  PHE253      0.0547
    137  CG        -8.4120  -30.5370   38.0910 C.ar  253  PHE253     -0.0202
    138  CD1       -9.0370  -29.7750   37.1220 C.ar  253  PHE253     -0.0042
    139  CD2       -7.6960  -29.8860   39.1010 C.ar  253  PHE253     -0.0042
    140  CE1       -8.9280  -28.4030   37.1390 C.ar  253  PHE253     -0.0003
    141  CE2       -7.5810  -28.4720   39.1260 C.ar  253  PHE253     -0.0003
    142  CZ        -8.1860  -27.7460   38.1690 C.ar  253  PHE253     -0.0000
    143  N         -5.6830  -31.4690   36.9220 N.am  254  GLY254     -0.1957
    144  CA        -4.2500  -31.2420   37.1680 C.3   254  GLY254      0.1869
    145  C         -3.4030  -31.4410   35.9200 C.2   254  GLY254      0.2309
    146  O         -3.8840  -31.9380   34.8760 O.2   254  GLY254     -0.2863
    147  N        -10.0530  -19.0170   20.7010 N.3   365  THR365     -0.1218
    148  CA        -9.6660  -20.4530   20.7260 C.3   365  THR365      0.1862
    149  C         -9.1860  -20.9370   19.3470 C.2   365  THR365      0.2287
    150  O         -8.3240  -21.7960   19.2660 O.2   365  THR365     -0.2866
    151  CB       -10.7430  -21.3890   21.3380 C.3   365  THR365      0.1770
    152  OG1      -11.2150  -20.8390   22.5750 O.3   365  THR365     -0.2211
    153  CG2      -10.1710  -22.7860   21.6080 C.3   365  THR365      0.0375
    154  N        -16.5840  -28.9950   17.1210 N.3   374  ARG374     -0.1245
    155  CA       -15.4750  -29.8990   17.3570 C.3   374  ARG374      0.1563
    156  C        -15.9450  -31.1460   18.1090 C.2   374  ARG374      0.2260
    157  O        -16.1070  -31.1390   19.3250 O.2   374  ARG374     -0.2867
    158  CB       -14.3890  -29.1600   18.0950 C.3   374  ARG374      0.0307
    159  CG       -13.2320  -29.9450   18.4790 C.3   374  ARG374      0.0489
    160  CD       -12.4180  -29.1080   19.3610 C.3   374  ARG374      0.2205
    161  NE       -11.2950  -29.8640   19.8350 N.pl3 374  ARG374     -0.0865
    162  CZ       -11.2470  -30.5030   20.9890 C.cat 374  ARG374      0.5346
    163  NH1      -12.2720  -30.4710   21.8370 N.pl3 374  ARG374      0.1354
    164  NH2      -10.1490  -31.1610   21.2960 N.pl3 374  ARG374      0.1354
@<TRIPOS>BOND
     1    81    80    2
     2    80    79    1
     3   154   155    1
     4    79    82    1
     5    79    78    1
     6    82    83    1
     7   155   158    1
     8   155   156    1
     9    78    74   am
    10   158   159    1
    11   156   157    2
    12    59    58    2
    13   159   160    1
    14    70    69    1
    15    66    67    1
    16    66    69    1
    17    66    65    1
    18    83    84    1
    19    74    75    2
    20    74    73    1
    21    67    68    2
    22    71    69    1
    23   150   149    2
    24    84    85    1
    25    72    73    1
    26   149   148    1
    27   160   161    1
    28    58    57    1
    29    73    76    1
    30   161   162    2
    31    56    57    1
    32    60    57    1
    33    60    61    1
    34   147   148    1
    35   148   151    1
    36   162   164    1
    37   162   163    1
    38    76    77    1
    39    63    62   ar
    40    62    64   ar
    41    62    61    1
    42   151   153    1
    43   151   152    1
    44    40    41    1
    45   104   103    2
    46   105   106    1
    47   105   102    1
    48    41    42    1
    49    41    44    1
    50   106   107   ar
    51   106   108   ar
    52   103   102    1
    53    89    88    2
    54   107   109   ar
    55   108   110   ar
    56   102   101    1
    57    42    43    2
    58    44    45    1
    59   109   110   ar
    60    86    87    1
    61    88    87    1
    62   101    96   am
    63     7     6    2
    64    46    45   ar
    65    46    48   ar
    66    90    87    1
    67    90    91    1
    68    45    47   ar
    69    92    91   ar
    70    91    93   ar
    71    94    95    1
    72    48    49   ar
    73     6     8   am
    74     6     5    1
    75    96    97    2
    76    96    95    1
    77    47    49   ar
    78    95    98    1
    79     2     1    1
    80     2     5    1
    81     2     3    1
    82    50    51    1
    83    98    99    1
    84    98   100    1
    85   130   129    1
    86   130   131    1
    87     3     4    2
    88    52    51    1
    89    52    53    2
    90   129   128    1
    91    55    54    1
    92    51    54    1
    93    39    37   am
    94    38    37    2
    95   127   128    1
    96   127   124    1
    97    37    36    1
    98    36    33    1
    99   125   124    1
   100   125   126    2
   101   124   123    1
   102   117   115    1
   103    29    27   ar
   104    29    30   ar
   105    31    30    1
   106    27    25   ar
   107    33    34    1
   108    33    32    1
   109    30    28   ar
   110    35    34    2
   111   111   112    1
   112   123   120   am
   113   115   112    1
   114   115   116    1
   115    19    16    1
   116    25    24    1
   117    25    26   ar
   118   112   113    1
   119   114   113    2
   120    18    17    2
   121    21    20    1
   122    21    24    1
   123    21    22    1
   124    28    26   ar
   125   121   120    2
   126   120   119    1
   127    17    20   am
   128    17    16    1
   129    23    22    2
   130    16    15    1
   131   119   118    1
   132   119   122    1
   133    15    11   am
   134    11    12    2
   135    11    10    1
   136   146   145    2
   137    14    13    1
   138    13    10    1
   139    10     9    1
   140   145   144    1
   141   143   144    1
   142   143   134   am
   143   132   133    1
   144   133   134    1
   145   133   136    1
   146   138   140   ar
   147   138   137   ar
   148   140   142   ar
   149   134   135    2
   150   136   137    1
   151   137   139   ar
   152   142   141   ar
   153   139   141   ar
