@<TRIPOS>MOLECULE
tmp/2bwtA01.pdb
 97 93 0 0 0
SMALL
GASTEIGER

@<TRIPOS>ATOM
      1  N         24.1920   51.4010   37.8270 N.3   242  LEU242     -0.1231
      2  CA        25.0400   52.1340   38.7740 C.3   242  LEU242      0.1693
      3  C         24.6940   51.8940   40.2550 C.2   242  LEU242      0.2592
      4  O         25.5970   51.8400   41.0940 O.2   242  LEU242     -0.2718
      5  CB        25.0340   53.6350   38.4500 C.3   242  LEU242      0.0284
      6  CG        25.5610   54.0020   37.0580 C.3   242  LEU242      0.0019
      7  CD1       25.4930   55.5100   36.8250 C.3   242  LEU242      0.0001
      8  CD2       26.9820   53.4830   36.8610 C.3   242  LEU242      0.0001
      9  N         23.4040   51.7560   40.5670 N.am  243  HIS243     -0.1976
     10  CA        22.9810   51.4350   41.9280 C.3   243  HIS243      0.1656
     11  C         22.2140   50.0970   41.9130 C.2   243  HIS243      0.2291
     12  O         20.9930   50.0210   42.1290 O.2   243  HIS243     -0.2864
     13  CB        22.2030   52.6090   42.5650 C.3   243  HIS243      0.0771
     14  CG        23.0200   53.8630   42.7260 C.ar  243  HIS243      0.0820
     15  ND1       22.6500   55.0750   42.1780 N.ar  243  HIS243     -0.2267
     16  CD2       24.1970   54.0870   43.3620 C.ar  243  HIS243      0.1154
     17  CE1       23.5580   55.9890   42.4730 C.ar  243  HIS243      0.1986
     18  NE2       24.5080   55.4150   43.1890 N.ar  243  HIS243     -0.2212
     19  N         34.7700   54.7830   50.6020 N.3   271  ASP271     -0.1239
     20  CA        34.0190   54.4920   49.3720 C.3   271  ASP271      0.1674
     21  C         35.0000   54.0400   48.2910 C.2   271  ASP271      0.2266
     22  O         35.7260   54.8510   47.7170 O.2   271  ASP271     -0.2867
     23  CB        33.2310   55.7310   48.9170 C.3   271  ASP271      0.1410
     24  CG        32.4830   55.5200   47.6000 C.2   271  ASP271      0.3668
     25  OD1       32.3220   54.3600   47.1700 O.co2 271  ASP271     -0.2456
     26  OD2       32.0580   56.5310   46.9940 O.co2 271  ASP271     -0.2456
     27  N         28.2300   59.4260   34.7590 N.3   350  HIS350     -0.1226
     28  CA        28.2510   60.0940   36.0570 C.3   350  HIS350      0.1752
     29  C         29.5130   60.9430   36.1810 C.2   350  HIS350      0.2596
     30  O         30.3310   60.9730   35.2690 O.2   350  HIS350     -0.2718
     31  CB        28.1320   59.0790   37.2020 C.3   350  HIS350      0.0759
     32  CG        29.1950   58.0270   37.1990 C.ar  350  HIS350      0.0818
     33  ND1       30.4320   58.2160   37.7780 N.ar  350  HIS350     -0.2268
     34  CD2       29.2040   56.7730   36.6900 C.ar  350  HIS350      0.1154
     35  CE1       31.1570   57.1230   37.6220 C.ar  350  HIS350      0.1986
     36  NE2       30.4350   56.2310   36.9680 N.ar  350  HIS350     -0.2212
     37  N         29.6410   61.6510   37.3010 N.am  351  GLY351     -0.1957
     38  CA        30.8010   62.4870   37.5680 C.3   351  GLY351      0.1869
     39  C         32.0490   61.6890   37.8930 C.2   351  GLY351      0.2309
     40  O         31.9810   60.4940   38.1910 O.2   351  GLY351     -0.2863
     41  N         34.2330   62.6120   40.3840 N.3   353  SER353     -0.1202
     42  CA        34.6250   62.7790   41.7830 C.3   353  SER353      0.2020
     43  C         33.5040   63.3950   42.6010 C.2   353  SER353      0.2618
     44  O         32.8150   64.2830   42.1180 O.2   353  SER353     -0.2717
     45  CB        35.8640   63.6910   41.8820 C.3   353  SER353      0.2103
     46  OG        37.0320   63.0580   41.3780 O.3   353  SER353     -0.2182
     47  N         33.3330   62.9150   43.8340 N.am  354  HIS354     -0.1975
     48  CA        32.4460   63.5530   44.8050 C.3   354  HIS354      0.1656
     49  C         33.1480   63.7360   46.1350 C.2   354  HIS354      0.2291
     50  O         34.0190   62.9510   46.5070 O.2   354  HIS354     -0.2864
     51  CB        31.1200   62.7830   44.9960 C.3   354  HIS354      0.0771
     52  CG        31.2710   61.3600   45.4570 C.ar  354  HIS354      0.0820
     53  ND1       31.4470   61.0140   46.7800 N.ar  354  HIS354     -0.2267
     54  CD2       31.2030   60.1920   44.7730 C.ar  354  HIS354      0.1154
     55  CE1       31.5210   59.6960   46.8840 C.ar  354  HIS354      0.1986
     56  NE2       31.3770   59.1740   45.6800 N.ar  354  HIS354     -0.2212
     57  N         28.3630   60.7870   49.8910 N.3   361  HIS361     -0.1241
     58  CA        28.1990   61.9030   48.9660 C.3   361  HIS361      0.1621
     59  C         28.1850   63.1790   49.7960 C.2   361  HIS361      0.2264
     60  O         27.1250   63.7040   50.1310 O.2   361  HIS361     -0.2867
     61  CB        26.9250   61.7530   48.1350 C.3   361  HIS361      0.0745
     62  CG        27.0020   60.6550   47.1230 C.ar  361  HIS361      0.0817
     63  ND1       25.9120   59.8950   46.7620 N.ar  361  HIS361     -0.2268
     64  CD2       28.0490   60.1750   46.4110 C.ar  361  HIS361      0.1154
     65  CE1       26.2840   58.9990   45.8630 C.ar  361  HIS361      0.1986
     66  NE2       27.5760   59.1480   45.6310 N.ar  361  HIS361     -0.2212
     67  N         31.1370   71.7850   38.7250 N.3   370  ARG370     -0.1245
     68  CA        32.2500   71.2940   39.5570 C.3   370  ARG370      0.1563
     69  C         33.5970   71.9840   39.2800 C.2   370  ARG370      0.2260
     70  O         34.6720   71.3750   39.3960 O.2   370  ARG370     -0.2867
     71  CB        32.3910   69.7760   39.4380 C.3   370  ARG370      0.0307
     72  CG        31.0580   69.0520   39.4540 C.3   370  ARG370      0.0489
     73  CD        31.1590   67.6970   40.1250 C.3   370  ARG370      0.2205
     74  NE        30.0910   66.7830   39.7130 N.pl3 370  ARG370     -0.0865
     75  CZ        29.8010   65.6260   40.3170 C.cat 370  ARG370      0.5346
     76  NH1       30.4810   65.2140   41.3840 N.pl3 370  ARG370      0.1354
     77  NH2       28.8150   64.8670   39.8560 N.pl3 370  ARG370      0.1354
     78  N         36.6660   58.3490   40.5430 N.3   383  GLU383     -0.1245
     79  CA        35.9030   57.1630   40.1200 C.3   383  GLU383      0.1567
     80  C         35.4460   57.1770   38.6590 C.2   383  GLU383      0.2260
     81  O         34.2530   57.2930   38.3830 O.2   383  GLU383     -0.2867
     82  CB        34.6980   56.9470   41.0540 C.3   383  GLU383      0.0388
     83  CG        33.6990   58.0980   41.1580 C.3   383  GLU383      0.1160
     84  CD        32.5950   57.8170   42.1830 C.2   383  GLU383      0.3649
     85  OE1       31.5540   57.2350   41.8110 O.co2 383  GLU383     -0.2457
     86  OE2       32.7610   58.1930   43.3670 O.co2 383  GLU383     -0.2457
     87  N         34.1690   50.0420   36.8510 N.3   404  ARG404     -0.1245
     88  CA        34.5790   51.2470   37.5630 C.3   404  ARG404      0.1563
     89  C         35.7060   50.9190   38.5300 C.2   404  ARG404      0.2260
     90  O         35.7370   49.8320   39.1050 O.2   404  ARG404     -0.2867
     91  CB        33.4100   51.8730   38.3240 C.3   404  ARG404      0.0307
     92  CG        33.7690   53.2040   39.0030 C.3   404  ARG404      0.0489
     93  CD        32.5580   53.9770   39.5390 C.3   404  ARG404      0.2205
     94  NE        31.9370   53.3100   40.6830 N.pl3 404  ARG404     -0.0865
     95  CZ        30.7530   52.6970   40.6630 C.cat 404  ARG404      0.5346
     96  NH1       30.0010   52.6600   39.5710 N.pl3 404  ARG404      0.1354
     97  NH2       30.3080   52.1120   41.7600 N.pl3 404  ARG404      0.1354
@<TRIPOS>BOND
     1    27    28    1
     2    30    29    2
     3    28    29    1
     4    28    31    1
     5    29    37   am
     6    34    36   ar
     7    34    32   ar
     8     7     6    1
     9    87    88    1
    10     8     6    1
    11    36    35   ar
    12     6     5    1
    13    32    31    1
    14    32    33   ar
    15    37    38    1
    16    88    91    1
    17    88    89    1
    18    38    39    1
    19    35    33   ar
    20     1     2    1
    21    39    40    2
    22    91    92    1
    23    81    80    2
    24     5     2    1
    25    89    90    2
    26    80    79    1
    27    67    68    1
    28     2     3    1
    29    92    93    1
    30    69    70    2
    31    69    68    1
    32    71    72    1
    33    71    68    1
    34    72    73    1
    35    93    94    1
    36    96    95    1
    37    74    73    1
    38    74    75    2
    39    77    75    1
    40    79    78    1
    41    79    82    1
    42     3     9   am
    43     3     4    2
    44    75    76    1
    45    41    42    1
    46     9    10    1
    47    95    94    2
    48    95    97    1
    49    82    83    1
    50    83    84    1
    51    46    45    1
    52    42    45    1
    53    42    43    1
    54    85    84   ar
    55    11    10    1
    56    11    12    2
    57    10    13    1
    58    44    43    2
    59    15    17   ar
    60    15    14   ar
    61    84    86   ar
    62    17    18   ar
    63    13    14    1
    64    43    47   am
    65    14    16   ar
    66    18    16   ar
    67    47    48    1
    68    54    52   ar
    69    54    56   ar
    70    48    51    1
    71    48    49    1
    72    51    52    1
    73    52    53   ar
    74    66    65   ar
    75    66    64   ar
    76    56    55   ar
    77    65    63   ar
    78    49    50    2
    79    64    62   ar
    80    63    62   ar
    81    53    55   ar
    82    26    24   ar
    83    62    61    1
    84    25    24   ar
    85    24    23    1
    86    22    21    2
    87    61    58    1
    88    21    20    1
    89    23    20    1
    90    58    59    1
    91    58    57    1
    92    20    19    1
    93    59    60    2
