@<TRIPOS>MOLECULE
tmp/2bx7B01.pdb
 101 94 0 0 0
SMALL
GASTEIGER

@<TRIPOS>ATOM
      1  N          2.1230   13.3740   14.9630 N.3    19  SER19      -0.1217
      2  CA         2.4560   12.6080   16.1340 C.3    19  SER19       0.1889
      3  C          1.7540   13.1890   17.3270 C.2    19  SER19       0.2288
      4  O          1.6360   14.4190   17.4850 O.2    19  SER19      -0.2866
      5  CB         3.9530   12.6090   16.4040 C.3    19  SER19       0.2089
      6  OG         4.2110   11.7650   17.5290 O.3    19  SER19      -0.2183
      7  N          2.9710    7.8710   18.1370 N.3    43  LYS43      -0.1231
      8  CA         3.1640    8.7610   19.2940 C.3    43  LYS43       0.1693
      9  C          4.6670    8.8480   19.6580 C.2    43  LYS43       0.2592
     10  O          5.3240    7.8330   19.8140 O.2    43  LYS43      -0.2718
     11  CB         2.3450    8.2400   20.4950 C.3    43  LYS43       0.0285
     12  CG         2.6100    8.9610   21.8480 C.3    43  LYS43       0.0035
     13  CD         2.1160   10.4350   21.8070 C.3    43  LYS43       0.0206
     14  CE         2.5690   11.3210   22.9760 C.3    43  LYS43       0.1093
     15  NZ         2.0540   12.7220   22.8300 N.3    43  LYS43      -0.1314
     16  N          5.1910   10.0470   19.8450 N.am   44  SER44      -0.1952
     17  CA         6.5440   10.2290   20.3690 C.3    44  SER44       0.1924
     18  C          6.8080    9.3210   21.5800 C.2    44  SER44       0.2314
     19  O          6.0150    9.2890   22.5360 O.2    44  SER44      -0.2863
     20  CB         6.7630   11.6800   20.7590 C.3    44  SER44       0.2116
     21  OG         6.6920   12.5340   19.6240 O.3    44  SER44      -0.2180
     22  N         -3.1320   21.9480   24.7980 N.3    67  ASN67      -0.1240
     23  CA        -2.8020   20.7430   25.5050 C.3    67  ASN67       0.1653
     24  C         -1.4890   20.8480   26.2570 C.2    67  ASN67       0.2266
     25  O         -0.5930   21.5540   25.8530 O.2    67  ASN67      -0.2867
     26  CB        -2.7430   19.5730   24.5290 C.3    67  ASN67       0.1155
     27  CG        -1.3750   19.3790   23.9510 C.2    67  ASN67       0.2627
     28  OD1       -0.4810   18.7990   24.6080 O.2    67  ASN67      -0.2716
     29  ND2       -1.1670   19.8830   22.7140 N.am   67  ASN67      -0.0877
     30  N         -0.0200   17.4840   27.2890 N.3    69  MET69      -0.1230
     31  CA        -0.1760   16.0240   27.4890 C.3    69  MET69       0.1702
     32  C          0.9200   15.4500   28.4180 C.2    69  MET69       0.2593
     33  O          0.6030   14.5980   29.2470 O.2    69  MET69      -0.2718
     34  CB        -0.1800   15.2030   26.2010 C.3    69  MET69       0.0401
     35  CG        -1.1550   15.5910   25.1760 C.3    69  MET69       0.0596
     36  SD        -2.8400   15.5560   25.7220 S.3    69  MET69      -0.1393
     37  CE        -3.1180   13.7430   25.9440 C.3    69  MET69       0.0692
     38  N          2.1600   15.9430   28.2950 N.am   70  GLY70      -0.1942
     39  CA         3.2980   15.4370   29.0790 C.3    70  GLY70       0.2014
     40  C          3.8990   14.1200   28.5630 C.2    70  GLY70       0.2638
     41  O          4.4140   13.3040   29.3530 O.2    70  GLY70      -0.2714
     42  N          3.7890   13.8950   27.2570 N.am   71  LEU71      -0.1977
     43  CA         4.3380   12.7170   26.5820 C.3    71  LEU71       0.1596
     44  C          3.8840   11.3810   27.1610 C.2    71  LEU71       0.2287
     45  O          4.7190   10.5120   27.4710 O.2    71  LEU71      -0.2864
     46  CB         5.8730   12.7770   26.5760 C.3    71  LEU71       0.0297
     47  CG         6.5360   13.6540   25.5560 C.3    71  LEU71       0.0022
     48  CD1        8.0440   13.6160   25.8550 C.3    71  LEU71       0.0001
     49  CD2        6.2120   13.0910   24.1260 C.3    71  LEU71       0.0001
     50  N         11.9510   14.2370   17.7450 N.3   127  ASN127     -0.1240
     51  CA        11.1980   15.3850   18.2180 C.3   127  ASN127      0.1653
     52  C         12.0700   16.2700   19.0890 C.2   127  ASN127      0.2266
     53  O         12.3470   15.9380   20.2200 O.2   127  ASN127     -0.2867
     54  CB         9.9880   14.8800   19.0040 C.3   127  ASN127      0.1155
     55  CG         9.1100   15.9810   19.5430 C.2   127  ASN127      0.2627
     56  OD1        9.4070   17.1570   19.4220 O.2   127  ASN127     -0.2716
     57  ND2        7.9860   15.5910   20.1340 N.am  127  ASN127     -0.0877
     58  N          9.2990   19.1950   22.1830 N.3   130  CYS130     -0.1221
     59  CA         8.1540   18.9820   23.0870 C.3   130  CYS130      0.1794
     60  C          8.0730   20.1300   24.1220 C.2   130  CYS130      0.2443
     61  O          9.0470   20.3420   24.8870 O.2   130  CYS130     -0.2733
     62  CB         8.1680   17.6300   23.8050 C.3   130  CYS130      0.0970
     63  SG         6.5010   17.3520   24.4760 S.3   130  CYS130     -0.0800
     64  N          6.9650   20.8960   24.1050 N.am  131  PRO131     -0.2718
     65  CA         6.8650   22.1100   24.9380 C.3   131  PRO131      0.1535
     66  C          6.0980   21.8830   26.2410 C.2   131  PRO131      0.2598
     67  O          5.8590   22.8460   26.9740 O.2   131  PRO131     -0.2715
     68  CB         6.0820   23.0720   24.0290 C.3   131  PRO131      0.0310
     69  CG         5.0050   22.0840   23.2830 C.3   131  PRO131      0.0237
     70  CD         5.7340   20.7060   23.2780 C.3   131  PRO131      0.0939
     71  N          5.7220   20.6350   26.5190 N.am  132  ASN132     -0.1973
     72  CA         4.8300   20.3190   27.6470 C.3   132  ASN132      0.1688
     73  C          5.4450   19.4720   28.7920 C.2   132  ASN132      0.2292
     74  O          4.7580   19.1740   29.7890 O.2   132  ASN132     -0.2864
     75  CB         3.5260   19.7010   27.1040 C.3   132  ASN132      0.1181
     76  CG         2.7500   20.6780   26.1840 C.2   132  ASN132      0.2629
     77  OD1        2.6190   21.8690   26.5010 O.2   132  ASN132     -0.2716
     78  ND2        2.2310   20.1720   25.0630 N.am  132  ASN132     -0.0877
     79  N         11.3970   17.0310   14.0660 N.3   164  LYS164     -0.1245
     80  CA        10.2090   17.8220   14.3400 C.3   164  LYS164      0.1561
     81  C         10.6300   19.0670   15.1160 C.2   164  LYS164      0.2260
     82  O         11.2030   18.9920   16.2190 O.2   164  LYS164     -0.2867
     83  CB         9.2170   16.9740   15.1460 C.3   164  LYS164      0.0271
     84  CG         7.8950   17.6510   15.5810 C.3   164  LYS164      0.0035
     85  CD         6.9790   17.7350   14.4510 C.3   164  LYS164      0.0206
     86  CE         5.6140   18.1580   14.8290 C.3   164  LYS164      0.1093
     87  NZ         4.7560   17.0790   15.4910 N.3   164  LYS164     -0.1314
     88  N          5.7090   21.9510   15.3190 N.3   193  ASN193     -0.1225
     89  CA         5.0790   21.5740   16.5910 C.3   193  ASN193      0.1785
     90  C          4.2160   22.7160   17.0730 C.2   193  ASN193      0.2597
     91  O          4.1560   23.8220   16.4710 O.2   193  ASN193     -0.2718
     92  CB         6.1260   21.2240   17.6880 C.3   193  ASN193      0.1169
     93  CG         5.7090   20.0100   18.5430 C.2   193  ASN193      0.2627
     94  OD1        4.5600   19.8540   18.8710 O.2   193  ASN193     -0.2716
     95  ND2        6.6350   19.0960   18.7950 N.am  193  ASN193     -0.0877
     96  N          3.5230   22.4600   18.1580 N.am  194  SER194     -0.1952
     97  CA         2.6250   23.4240   18.7600 C.3   194  SER194      0.1924
     98  C          3.2600   24.7580   19.0070 C.2   194  SER194      0.2314
     99  O          4.4630   24.8630   19.2870 O.2   194  SER194     -0.2863
    100  CB         2.0590   22.8780   20.0770 C.3   194  SER194      0.2116
    101  OG         1.4160   21.6370   19.8800 O.3   194  SER194     -0.2180
@<TRIPOS>BOND
     1    79    80    1
     2    80    81    1
     3    80    83    1
     4    85    86    1
     5    85    84    1
     6    86    87    1
     7     1     2    1
     8    81    82    2
     9    83    84    1
    10    88    89    1
    11     2     5    1
    12     2     3    1
    13     5     6    1
    14    91    90    2
    15    89    90    1
    16    89    92    1
    17    90    96   am
    18     3     4    2
    19    92    93    1
    20    50    51    1
    21     7     8    1
    22    96    97    1
    23    51    54    1
    24    51    52    1
    25    93    95   am
    26    93    94    2
    27    97    98    1
    28    97   100    1
    29    54    55    1
    30    98    99    2
    31    52    53    2
    32     8     9    1
    33     8    11    1
    34    56    55    2
    35    55    57   am
    36    21    20    1
    37     9    10    2
    38     9    16   am
    39    16    17    1
    40   101   100    1
    41    17    20    1
    42    17    18    1
    43    11    12    1
    44    18    19    2
    45    13    12    1
    46    13    14    1
    47    58    59    1
    48    29    27   am
    49    15    14    1
    50    59    62    1
    51    59    60    1
    52    70    69    1
    53    70    64    1
    54    69    68    1
    55    62    63    1
    56    27    26    1
    57    27    28    2
    58    68    65    1
    59    64    60   am
    60    64    65    1
    61    60    61    2
    62    49    47    1
    63    26    23    1
    64    22    23    1
    65    65    66    1
    66    78    76   am
    67    35    36    1
    68    35    34    1
    69    23    24    1
    70    47    48    1
    71    47    46    1
    72    36    37    1
    73    25    24    2
    74    76    77    2
    75    76    75    1
    76    34    31    1
    77    66    71   am
    78    66    67    2
    79    71    72    1
    80    46    43    1
    81    43    44    1
    82    43    42    1
    83    75    72    1
    84    44    45    2
    85    42    40   am
    86    30    31    1
    87    31    32    1
    88    72    73    1
    89    38    32   am
    90    38    39    1
    91    32    33    2
    92    40    39    1
    93    40    41    2
    94    73    74    2
