@<TRIPOS>MOLECULE
tmp/2bxaB00.pdb
 162 153 0 0 0
SMALL
GASTEIGER

@<TRIPOS>ATOM
      1  N         47.1530   26.0990   50.8580 N.3   134  TYR134     -0.1241
      2  CA        46.1670   26.8650   50.0920 C.3   134  TYR134      0.1605
      3  C         46.5050   26.7680   48.5800 C.2   134  TYR134      0.2264
      4  O         47.3630   27.4910   48.0730 O.2   134  TYR134     -0.2867
      5  CB        46.2130   28.3100   50.6190 C.3   134  TYR134      0.0534
      6  CG        45.1180   29.2550   50.1690 C.ar  134  TYR134     -0.0201
      7  CD1       43.8910   28.7830   49.7130 C.ar  134  TYR134     -0.0009
      8  CD2       45.3140   30.6370   50.2290 C.ar  134  TYR134     -0.0009
      9  CE1       42.8810   29.6640   49.3210 C.ar  134  TYR134      0.0417
     10  CE2       44.3100   31.5330   49.8460 C.ar  134  TYR134      0.0417
     11  CZ        43.0970   31.0390   49.3960 C.ar  134  TYR134      0.1957
     12  OH        42.0830   31.9030   49.0630 O.3   134  TYR134     -0.2866
     13  N         49.2090   29.5850   58.2930 N.3   179  LYS179     -0.1245
     14  CA        48.0210   30.4470   58.2740 C.3   179  LYS179      0.1561
     15  C         46.8440   29.6850   57.7030 C.2   179  LYS179      0.2260
     16  O         45.7200   29.8130   58.1730 O.2   179  LYS179     -0.2867
     17  CB        48.2290   31.6710   57.3820 C.3   179  LYS179      0.0271
     18  CG        49.0660   32.7840   57.9510 C.3   179  LYS179      0.0035
     19  CD        49.1550   33.9210   56.9280 C.3   179  LYS179      0.0206
     20  CE        50.0380   35.0750   57.4260 C.3   179  LYS179      0.1093
     21  NZ        50.4210   36.0210   56.3170 N.3   179  LYS179     -0.1314
     22  N         43.0060   28.3440   59.2170 N.3   183  LYS183     -0.1245
     23  CA        41.6990   28.5880   58.6020 C.3   183  LYS183      0.1561
     24  C         40.9400   27.2820   58.4980 C.2   183  LYS183      0.2260
     25  O         39.7430   27.2200   58.7560 O.2   183  LYS183     -0.2867
     26  CB        41.8230   29.1880   57.1810 C.3   183  LYS183      0.0271
     27  CG        42.4810   30.5730   57.0660 C.3   183  LYS183      0.0035
     28  CD        41.9530   31.3040   55.8380 C.3   183  LYS183      0.0206
     29  CE        42.8510   32.4380   55.3800 C.3   183  LYS183      0.1093
     30  NZ        43.8240   32.9220   56.3910 N.3   183  LYS183     -0.1314
     31  N         35.9720   35.7280   62.4810 N.3   198  TRP198     -0.1241
     32  CA        37.3740   36.0740   62.2730 C.3   198  TRP198      0.1605
     33  C         37.4740   36.9610   61.0020 C.2   198  TRP198      0.2264
     34  O         38.2010   37.9550   60.9750 O.2   198  TRP198     -0.2867
     35  CB        38.2110   34.7960   62.0820 C.3   198  TRP198      0.0550
     36  CG        39.5950   35.0840   61.7200 C.ar  198  TRP198      0.0003
     37  CD1       40.6030   35.4400   62.5650 C.ar  198  TRP198      0.0946
     38  CD2       40.1190   35.2080   60.3910 C.ar  198  TRP198      0.0152
     39  NE1       41.7220   35.7820   61.8460 N.ar  198  TRP198     -0.2442
     40  CE2       41.4510   35.6430   60.5050 C.ar  198  TRP198      0.0810
     41  CE3       39.5890   34.9830   59.1120 C.ar  198  TRP198      0.0012
     42  CZ2       42.2590   35.8850   59.4000 C.ar  198  TRP198      0.0191
     43  CZ3       40.3890   35.2220   58.0090 C.ar  198  TRP198      0.0001
     44  CH2       41.7170   35.6620   58.1620 C.ar  198  TRP198      0.0015
     45  N         38.8490   40.7910   60.6250 N.3   202  ARG202     -0.1231
     46  CA        40.0540   40.9940   59.8360 C.3   202  ARG202      0.1694
     47  C         39.8350   41.9170   58.6300 C.2   202  ARG202      0.2591
     48  O         40.6720   42.7690   58.3520 O.2   202  ARG202     -0.2718
     49  CB        40.6190   39.6460   59.3650 C.3   202  ARG202      0.0321
     50  CG        41.9010   39.7720   58.5670 C.3   202  ARG202      0.0489
     51  CD        43.0370   40.2130   59.4630 C.3   202  ARG202      0.2205
     52  NE        44.2020   40.7040   58.7200 N.pl3 202  ARG202     -0.0865
     53  CZ        44.4260   41.9920   58.4530 C.cat 202  ARG202      0.5346
     54  NH1       43.5690   42.9280   58.8630 N.pl3 202  ARG202      0.1354
     55  NH2       45.5110   42.3500   57.7820 N.pl3 202  ARG202      0.1354
     56  N         38.7350   41.7370   57.9020 N.am  203  LEU203     -0.1980
     57  CA        38.4820   42.5830   56.7320 C.3   203  LEU203      0.1596
     58  C         38.0590   43.9990   57.1450 C.2   203  LEU203      0.2287
     59  O         38.3570   44.9620   56.4420 O.2   203  LEU203     -0.2864
     60  CB        37.4450   41.9290   55.7970 C.3   203  LEU203      0.0297
     61  CG        37.8000   40.4910   55.3630 C.3   203  LEU203      0.0022
     62  CD1       36.8470   39.9960   54.3090 C.3   203  LEU203      0.0001
     63  CD2       39.2040   40.4420   54.8120 C.3   203  LEU203      0.0001
     64  N         41.1590   45.9280   57.6410 N.3   206  ARG206     -0.1231
     65  CA        41.8170   46.1530   56.3610 C.3   206  ARG206      0.1694
     66  C         41.0920   47.1480   55.4590 C.2   206  ARG206      0.2592
     67  O         41.7230   47.9470   54.7620 O.2   206  ARG206     -0.2718
     68  CB        41.9680   44.8110   55.6420 C.3   206  ARG206      0.0321
     69  CG        42.7630   44.8500   54.3700 C.3   206  ARG206      0.0489
     70  CD        43.1050   43.4370   53.9230 C.3   206  ARG206      0.2205
     71  NE        44.0210   42.7960   54.8640 N.pl3 206  ARG206     -0.0865
     72  CZ        44.3860   41.5200   54.7940 C.cat 206  ARG206      0.5346
     73  NH1       43.9120   40.7470   53.8260 N.pl3 206  ARG206      0.1354
     74  NH2       45.2150   41.0130   55.6970 N.pl3 206  ARG206      0.1354
     75  N         39.7680   47.0860   55.4710 N.am  207  PHE207     -0.1976
     76  CA        38.9530   47.9730   54.6570 C.3   207  PHE207      0.1639
     77  C         38.0690   48.8210   55.5690 C.2   207  PHE207      0.2290
     78  O         36.8460   48.7040   55.5530 O.2   207  PHE207     -0.2864
     79  CB        38.0920   47.1330   53.7160 C.3   207  PHE207      0.0560
     80  CG        38.8740   46.1160   52.9260 C.ar  207  PHE207     -0.0200
     81  CD1       40.1470   46.4170   52.4420 C.ar  207  PHE207     -0.0042
     82  CD2       38.3200   44.8750   52.6290 C.ar  207  PHE207     -0.0042
     83  CE1       40.8590   45.4970   51.6690 C.ar  207  PHE207     -0.0003
     84  CE2       39.0180   43.9410   51.8550 C.ar  207  PHE207     -0.0003
     85  CZ        40.2930   44.2540   51.3730 C.ar  207  PHE207     -0.0000
     86  N         31.8350   40.3960   51.1400 N.3   218  LEU218     -0.1245
     87  CA        33.1800   39.8840   50.9900 C.3   218  LEU218      0.1561
     88  C         33.3850   38.6330   51.8440 C.2   218  LEU218      0.2260
     89  O         33.8960   37.6140   51.3550 O.2   218  LEU218     -0.2867
     90  CB        34.1890   40.9680   51.3770 C.3   218  LEU218      0.0270
     91  CG        34.2900   42.1250   50.3770 C.3   218  LEU218      0.0019
     92  CD1       35.4660   43.0290   50.7310 C.3   218  LEU218      0.0001
     93  CD2       34.4700   41.5520   48.9840 C.3   218  LEU218      0.0001
     94  N         34.5330   34.9300   50.7450 N.3   222  LEU222     -0.1245
     95  CA        35.7830   34.4190   51.2820 C.3   222  LEU222      0.1561
     96  C         35.5180   33.1060   52.0090 C.2   222  LEU222      0.2260
     97  O         36.2950   32.1660   51.8880 O.2   222  LEU222     -0.2867
     98  CB        36.4200   35.4230   52.2330 C.3   222  LEU222      0.0270
     99  CG        37.7910   34.9880   52.7500 C.3   222  LEU222      0.0019
    100  CD1       38.7010   34.6270   51.5780 C.3   222  LEU222      0.0001
    101  CD2       38.3950   36.1110   53.5800 C.3   222  LEU222      0.0001
    102  N         37.4990   29.2910   51.1110 N.3   226  HIS226     -0.1241
    103  CA        38.2390   28.4720   52.0560 C.3   226  HIS226      0.1621
    104  C         37.5120   27.2190   52.4470 C.2   226  HIS226      0.2264
    105  O         38.1370   26.1990   52.7360 O.2   226  HIS226     -0.2867
    106  CB        38.6340   29.3100   53.2520 C.3   226  HIS226      0.0745
    107  CG        39.7000   30.3030   52.9290 C.ar  226  HIS226      0.0817
    108  ND1       40.9910   29.9270   52.6190 N.ar  226  HIS226     -0.2268
    109  CD2       39.6670   31.6510   52.8400 C.ar  226  HIS226      0.1154
    110  CE1       41.7110   31.0050   52.3580 C.ar  226  HIS226      0.1986
    111  NE2       40.9310   32.0650   52.4870 N.ar  226  HIS226     -0.2212
    112  N         38.0810   31.8150   43.8590 N.3   241  ARG241     -0.1245
    113  CA        38.9880   32.8210   44.3760 C.3   241  ARG241      0.1563
    114  C         39.2910   33.8500   43.2940 C.2   241  ARG241      0.2260
    115  O         39.4590   35.0300   43.5860 O.2   241  ARG241     -0.2867
    116  CB        40.2900   32.1930   44.8590 C.3   241  ARG241      0.0307
    117  CG        41.1550   33.2080   45.5860 C.3   241  ARG241      0.0489
    118  CD        42.5750   32.7420   45.7710 C.3   241  ARG241      0.2205
    119  NE        43.3330   33.7010   46.5630 N.pl3 241  ARG241     -0.0865
    120  CZ        44.6450   33.6420   46.7360 C.cat 241  ARG241      0.5346
    121  NH1       45.3520   32.6760   46.1620 N.pl3 241  ARG241      0.1354
    122  NH2       45.2450   34.5200   47.5140 N.pl3 241  ARG241      0.1354
    123  N         36.3930   36.3920   42.9340 N.3   244  LEU244     -0.1231
    124  CA        36.4160   37.3810   44.0120 C.3   244  LEU244      0.1693
    125  C         37.5160   38.4320   43.8440 C.2   244  LEU244      0.2591
    126  O         37.3740   39.5740   44.2960 O.2   244  LEU244     -0.2718
    127  CB        36.5520   36.6840   45.3700 C.3   244  LEU244      0.0284
    128  CG        36.6160   37.6420   46.5650 C.3   244  LEU244      0.0019
    129  CD1       35.8160   37.0970   47.7180 C.3   244  LEU244      0.0001
    130  CD2       38.0620   37.8600   46.9590 C.3   244  LEU244      0.0001
    131  N         38.6170   38.0490   43.2050 N.am  245  ALA245     -0.1980
    132  CA        39.7050   38.9920   42.9600 C.3   245  ALA245      0.1597
    133  C         39.2340   39.9480   41.8630 C.2   245  ALA245      0.2287
    134  O         39.5690   41.1380   41.8590 O.2   245  ALA245     -0.2864
    135  CB        40.9630   38.2520   42.5060 C.3   245  ALA245      0.0319
    136  N         36.5210   42.3440   43.5010 N.3   248  ILE248     -0.1245
    137  CA        37.1650   43.3550   44.3300 C.3   248  ILE248      0.1561
    138  C         37.7820   44.4850   43.5190 C.2   248  ILE248      0.2260
    139  O         37.6430   45.6570   43.8630 O.2   248  ILE248     -0.2867
    140  CB        38.2600   42.7330   45.2230 C.3   248  ILE248      0.0252
    141  CG1       37.6160   41.8490   46.2940 C.3   248  ILE248      0.0019
    142  CG2       39.0940   43.8330   45.8740 C.3   248  ILE248      0.0019
    143  CD1       38.6080   41.2600   47.2850 C.3   248  ILE248      0.0001
    144  N         45.6410   38.0670   43.0110 N.3   271  SER271     -0.1217
    145  CA        45.0440   37.4560   44.1940 C.3   271  SER271      0.1889
    146  C         45.9460   37.4300   45.4240 C.2   271  SER271      0.2288
    147  O         45.5030   37.7500   46.5280 O.2   271  SER271     -0.2866
    148  CB        44.6030   36.0280   43.8800 C.3   271  SER271      0.2089
    149  OG        43.5180   36.0160   42.9730 O.3   271  SER271     -0.2183
    150  N         46.3000   40.9920   46.7940 N.3   274  ILE274     -0.1231
    151  CA        45.1060   41.4350   47.4990 C.3   274  ILE274      0.1692
    152  C         45.0450   40.9080   48.9290 C.2   274  ILE274      0.2591
    153  O         44.7750   41.6620   49.8640 O.2   274  ILE274     -0.2718
    154  CB        43.8330   40.9940   46.7330 C.3   274  ILE274      0.0266
    155  CG1       43.8470   41.6040   45.3260 C.3   274  ILE274      0.0019
    156  CG2       42.5860   41.4380   47.4800 C.3   274  ILE274      0.0020
    157  CD1       42.6900   41.1760   44.4370 C.3   274  ILE274      0.0001
    158  N         45.3070   39.6140   49.0890 N.am  275  ALA275     -0.1980
    159  CA        45.2750   38.9710   50.3940 C.3   275  ALA275      0.1597
    160  C         46.3240   39.4850   51.3710 C.2   275  ALA275      0.2287
    161  O         46.2490   39.2000   52.5590 O.2   275  ALA275     -0.2864
    162  CB        45.4240   37.4690   50.2260 C.3   275  ALA275      0.0319
@<TRIPOS>BOND
     1   134   133    2
     2   133   132    1
     3   135   132    1
     4   123   124    1
     5   132   131    1
     6   149   148    1
     7   144   145    1
     8   131   125   am
     9   114   115    2
    10   114   113    1
    11   136   137    1
    12   138   139    2
    13   138   137    1
    14   125   124    1
    15   125   126    2
    16   112   113    1
    17   148   145    1
    18   124   127    1
    19   145   146    1
    20   137   140    1
    21   113   116    1
    22   157   155    1
    23   116   117    1
    24   140   142    1
    25   140   141    1
    26   155   154    1
    27   127   128    1
    28   146   147    2
    29   117   118    1
    30   118   119    1
    31   121   120    1
    32   141   143    1
    33   119   120    2
    34   128   130    1
    35   128   129    1
    36   154   156    1
    37   154   151    1
    38   120   122    1
    39   150   151    1
    40   151   152    1
    41     4     3    2
    42     3     2    1
    43   152   158   am
    44   152   153    2
    45    93    91    1
    46    12    11    1
    47   158   159    1
    48     9    11   ar
    49     9     7   ar
    50    11    10   ar
    51     7     6   ar
    52    10     8   ar
    53     2     5    1
    54     2     1    1
    55     6     8   ar
    56     6     5    1
    57   162   159    1
    58    91    92    1
    59    91    90    1
    60   159   160    1
    61    94    95    1
    62    87    86    1
    63    87    90    1
    64    87    88    1
    65   102   103    1
    66    95    96    1
    67    95    98    1
    68    89    88    2
    69   160   161    2
    70    85    83   ar
    71    85    84   ar
    72   100    99    1
    73    83    81   ar
    74    84    82   ar
    75    97    96    2
    76   103   104    1
    77   103   106    1
    78    98    99    1
    79   110   111   ar
    80   110   108   ar
    81    81    80   ar
    82   104   105    2
    83   111   109   ar
    84   108   107   ar
    85    82    80   ar
    86    99   101    1
    87   109   107   ar
    88    80    79    1
    89   107   106    1
    90    79    76    1
    91    73    72    1
    92    70    69    1
    93    70    71    1
    94    62    61    1
    95    69    68    1
    96    76    75    1
    97    76    77    1
    98    67    66    2
    99    72    71    2
   100    72    74    1
   101    63    61    1
   102    61    60    1
   103    29    28    1
   104    29    30    1
   105    66    75   am
   106    66    65    1
   107    78    77    2
   108    68    65    1
   109    60    57    1
   110    28    27    1
   111    21    20    1
   112    65    64    1
   113    59    58    2
   114    57    58    1
   115    57    56    1
   116    19    20    1
   117    19    18    1
   118    27    26    1
   119    26    23    1
   120    17    18    1
   121    17    14    1
   122    15    16    2
   123    15    14    1
   124    55    53    1
   125    56    47   am
   126    43    44   ar
   127    43    41   ar
   128    44    42   ar
   129    14    13    1
   130    48    47    2
   131    53    52    2
   132    53    54    1
   133    24    23    1
   134    24    25    2
   135    50    49    1
   136    50    51    1
   137    23    22    1
   138    47    46    1
   139    52    51    1
   140    41    38   ar
   141    49    46    1
   142    42    40   ar
   143    46    45    1
   144    38    40   ar
   145    38    36   ar
   146    40    39   ar
   147    34    33    2
   148    33    32    1
   149    36    35    1
   150    36    37   ar
   151    39    37   ar
   152    35    32    1
   153    32    31    1
