@<TRIPOS>MOLECULE
tmp/2bxaB01.pdb
 162 150 0 0 0
SMALL
GASTEIGER

@<TRIPOS>ATOM
      1  N         52.2320   41.6670   77.8740 N.3   371  LEU371     -0.1231
      2  CA        52.8370   40.3870   77.5290 C.3   371  LEU371      0.1693
      3  C         53.8160   40.6760   76.3970 C.2   371  LEU371      0.2591
      4  O         54.9990   40.3250   76.4740 O.2   371  LEU371     -0.2718
      5  CB        51.7720   39.4080   77.0510 C.3   371  LEU371      0.0284
      6  CG        52.2750   38.1140   76.4100 C.3   371  LEU371      0.0019
      7  CD1       52.0000   36.9420   77.3330 C.3   371  LEU371      0.0001
      8  CD2       51.5760   37.9060   75.0580 C.3   371  LEU371      0.0001
      9  N         53.3070   41.3300   75.3530 N.am  372  ILE372     -0.1980
     10  CA        54.1160   41.6980   74.1990 C.3   372  ILE372      0.1595
     11  C         55.2800   42.5880   74.6260 C.2   372  ILE372      0.2287
     12  O         56.4210   42.3400   74.2620 O.2   372  ILE372     -0.2864
     13  CB        53.2870   42.4670   73.1390 C.3   372  ILE372      0.0276
     14  CG1       52.1240   41.6020   72.6440 C.3   372  ILE372      0.0022
     15  CG2       54.1760   42.8730   71.9680 C.3   372  ILE372      0.0022
     16  CD1       52.5310   40.3210   72.0020 C.3   372  ILE372      0.0001
     17  N         56.7300   42.9220   77.5300 N.3   374  GLN374     -0.1231
     18  CA        57.6960   42.2150   78.3560 C.3   374  GLN374      0.1698
     19  C         58.5750   41.2890   77.5240 C.2   374  GLN374      0.2592
     20  O         59.8010   41.3800   77.5710 O.2   374  GLN374     -0.2718
     21  CB        56.9850   41.4020   79.4430 C.3   374  GLN374      0.0381
     22  CG        57.3780   41.7720   80.8600 C.3   374  GLN374      0.0905
     23  CD        56.5130   42.9510   81.1370 C.2   374  GLN374      0.2608
     24  OE1       56.6930   43.9710   80.4540 O.2   374  GLN374     -0.2717
     25  NE2       55.3600   42.6440   81.7380 N.am  374  GLN374     -0.0878
     26  N         57.9480   40.4140   76.7470 N.am  375  ASN375     -0.1960
     27  CA        58.6900   39.4630   75.9380 C.3   375  ASN375      0.1819
     28  C         59.5830   40.0410   74.8550 C.2   375  ASN375      0.2621
     29  O         60.6210   39.4590   74.5530 O.2   375  ASN375     -0.2715
     30  CB        57.7320   38.4320   75.3570 C.3   375  ASN375      0.1195
     31  CG        57.2700   37.4380   76.4040 C.2   375  ASN375      0.2630
     32  OD1       58.0280   36.5560   76.8150 O.2   375  ASN375     -0.2716
     33  ND2       56.0320   37.5920   76.8650 N.am  375  ASN375     -0.0877
     34  N         59.1990   41.1740   74.2710 N.am  376  CYS376     -0.1968
     35  CA        60.0310   41.8050   73.2410 C.3   376  CYS376      0.1712
     36  C         61.2810   42.3990   73.8750 C.2   376  CYS376      0.2296
     37  O         62.3630   42.4040   73.2830 O.2   376  CYS376     -0.2864
     38  CB        59.2820   42.9270   72.5310 C.3   376  CYS376      0.0983
     39  SG        58.2260   42.3820   71.1670 S.3   376  CYS376     -0.0798
     40  N         66.3890   33.2560   73.2850 N.3   387  PHE387     -0.1241
     41  CA        64.9730   33.5010   73.5130 C.3   387  PHE387      0.1605
     42  C         64.2020   32.2170   73.2460 C.2   387  PHE387      0.2264
     43  O         63.3160   31.8540   74.0180 O.2   387  PHE387     -0.2867
     44  CB        64.4830   34.6360   72.6100 C.3   387  PHE387      0.0534
     45  CG        63.0720   35.0540   72.8790 C.ar  387  PHE387     -0.0203
     46  CD1       62.6900   35.4750   74.1500 C.ar  387  PHE387     -0.0042
     47  CD2       62.1210   35.0280   71.8620 C.ar  387  PHE387     -0.0042
     48  CE1       61.3850   35.8640   74.4070 C.ar  387  PHE387     -0.0003
     49  CE2       60.8080   35.4180   72.1040 C.ar  387  PHE387     -0.0003
     50  CZ        60.4380   35.8380   73.3820 C.ar  387  PHE387     -0.0000
     51  N         61.8810   30.0130   75.9420 N.3   391  LEU391     -0.1245
     52  CA        60.5250   29.5610   75.6710 C.3   391  LEU391      0.1561
     53  C         60.4580   28.0410   75.6710 C.2   391  LEU391      0.2260
     54  O         59.4030   27.4590   75.9330 O.2   391  LEU391     -0.2867
     55  CB        60.0380   30.1050   74.3200 C.3   391  LEU391      0.0270
     56  CG        59.8750   31.6280   74.1840 C.3   391  LEU391      0.0019
     57  CD1       59.3260   31.9610   72.8170 C.3   391  LEU391      0.0001
     58  CD2       58.9350   32.1450   75.2370 C.3   391  LEU391      0.0001
     59  N         60.1160   27.0500   79.2460 N.3   394  ARG394     -0.1231
     60  CA        58.7860   27.4660   79.6730 C.3   394  ARG394      0.1694
     61  C         57.6820   26.5190   79.2360 C.2   394  ARG394      0.2592
     62  O         56.8480   26.1230   80.0420 O.2   394  ARG394     -0.2718
     63  CB        58.4790   28.8760   79.1650 C.3   394  ARG394      0.0321
     64  CG        58.1010   29.8600   80.2700 C.3   394  ARG394      0.0489
     65  CD        57.6160   31.1940   79.6930 C.3   394  ARG394      0.2205
     66  NE        58.4560   32.3130   80.1160 N.pl3 394  ARG394     -0.0865
     67  CZ        58.8530   33.2920   79.3080 C.cat 394  ARG394      0.5346
     68  NH1       58.4910   33.2920   78.0290 N.pl3 394  ARG394      0.1354
     69  NH2       59.6110   34.2750   79.7780 N.pl3 394  ARG394      0.1354
     70  N         57.6790   26.1450   77.9610 N.am  395  TYR395     -0.1976
     71  CA        56.6570   25.2540   77.4480 C.3   395  TYR395      0.1639
     72  C         56.7650   23.7810   77.8500 C.2   395  TYR395      0.2290
     73  O         55.7360   23.1110   78.0670 O.2   395  TYR395     -0.2864
     74  CB        56.5660   25.4110   75.9260 C.3   395  TYR395      0.0560
     75  CG        55.5610   26.4830   75.5660 C.ar  395  TYR395     -0.0198
     76  CD1       55.8350   27.8430   75.7900 C.ar  395  TYR395     -0.0009
     77  CD2       54.2810   26.1290   75.1540 C.ar  395  TYR395     -0.0009
     78  CE1       54.8480   28.8010   75.6250 C.ar  395  TYR395      0.0417
     79  CE2       53.3010   27.0700   74.9910 C.ar  395  TYR395      0.0417
     80  CZ        53.5800   28.3980   75.2340 C.ar  395  TYR395      0.1957
     81  OH        52.5530   29.2960   75.1640 O.3   395  TYR395     -0.2866
     82  N         55.2380   23.5680   81.2230 N.3   398  LYS398     -0.1245
     83  CA        53.7800   23.6640   81.1600 C.3   398  LYS398      0.1561
     84  C         53.1700   22.3480   80.7430 C.2   398  LYS398      0.2260
     85  O         52.1900   21.9130   81.3210 O.2   398  LYS398     -0.2867
     86  CB        53.3050   24.7130   80.1250 C.3   398  LYS398      0.0271
     87  CG        53.5730   26.1840   80.4030 C.3   398  LYS398      0.0035
     88  CD        53.8300   26.8920   79.0580 C.3   398  LYS398      0.0206
     89  CE        52.8870   28.0470   78.7800 C.3   398  LYS398      0.1093
     90  NZ        53.0100   29.1400   79.7820 N.3   398  LYS398     -0.1314
     91  N         57.6390   29.7660   68.0760 N.3   414  LEU414     -0.1245
     92  CA        57.1340   30.7810   68.9880 C.3   414  LEU414      0.1561
     93  C         58.2200   31.8210   69.1650 C.2   414  LEU414      0.2260
     94  O         57.9400   33.0150   69.2270 O.2   414  LEU414     -0.2867
     95  CB        56.8020   30.1830   70.3590 C.3   414  LEU414      0.0270
     96  CG        55.5380   29.3490   70.5790 C.3   414  LEU414      0.0019
     97  CD1       55.5670   28.8060   72.0000 C.3   414  LEU414      0.0001
     98  CD2       54.2940   30.1860   70.3580 C.3   414  LEU414      0.0001
     99  N         58.6200   35.0670   66.8360 N.3   417  VAL417     -0.1231
    100  CA        57.7360   36.2210   66.8850 C.3   417  VAL417      0.1692
    101  C         58.6410   37.3740   67.2330 C.2   417  VAL417      0.2592
    102  O         58.4630   38.4770   66.7450 O.2   417  VAL417     -0.2718
    103  CB        56.6490   36.1090   67.9910 C.3   417  VAL417      0.0266
    104  CG1       55.5890   37.2090   67.8080 C.3   417  VAL417      0.0020
    105  CG2       55.9890   34.7580   67.9390 C.3   417  VAL417      0.0020
    106  N         59.6320   37.1000   68.0730 N.am  418  GLY418     -0.1957
    107  CA        60.5620   38.1360   68.4820 C.3   418  GLY418      0.1869
    108  C         61.1310   38.8970   67.2970 C.2   418  GLY418      0.2309
    109  O         60.9890   40.1160   67.1900 O.2   418  GLY418     -0.2863
    110  N         58.7020   42.2470   67.1050 N.3   422  CYS422     -0.1235
    111  CA        59.2440   43.2410   68.0030 C.3   422  CYS422      0.1677
    112  C         59.8560   44.4680   67.3620 C.2   422  CYS422      0.2270
    113  O         59.9280   45.5220   67.9930 O.2   422  CYS422     -0.2867
    114  CB        60.2480   42.5860   68.9350 C.3   422  CYS422      0.0956
    115  SG        59.4760   41.3110   69.9750 S.3   422  CYS422     -0.0801
    116  N         52.2310   40.0910   66.6660 N.3   433  ALA433     -0.1245
    117  CA        52.5250   39.0630   67.6490 C.3   433  ALA433      0.1562
    118  C         51.4180   38.0790   68.0220 C.2   433  ALA433      0.2260
    119  O         51.5540   36.8700   67.8060 O.2   433  ALA433     -0.2867
    120  CB        53.0780   39.7150   68.9000 C.3   433  ALA433      0.0290
    121  N         51.0170   34.1380   67.0420 N.3   437  LEU437     -0.1245
    122  CA        51.0010   33.1290   68.1180 C.3   437  LEU437      0.1561
    123  C         49.7800   32.2180   67.9640 C.2   437  LEU437      0.2260
    124  O         49.8120   31.0330   68.3430 O.2   437  LEU437     -0.2867
    125  CB        50.9780   33.7870   69.5150 C.3   437  LEU437      0.0270
    126  CG        52.2020   34.6480   69.8630 C.3   437  LEU437      0.0019
    127  CD1       51.9670   35.4620   71.1310 C.3   437  LEU437      0.0001
    128  CD2       53.4100   33.7490   70.0120 C.3   437  LEU437      0.0001
    129  N         50.4060   28.1390   67.8590 N.3   441  LEU441     -0.1245
    130  CA        49.7090   27.3030   68.8280 C.3   441  LEU441      0.1561
    131  C         48.7390   26.3850   68.1010 C.2   441  LEU441      0.2260
    132  O         48.4740   25.2700   68.5590 O.2   441  LEU441     -0.2867
    133  CB        48.9770   28.1430   69.8890 C.3   441  LEU441      0.0270
    134  CG        49.8590   28.9440   70.8640 C.3   441  LEU441      0.0019
    135  CD1       48.9840   29.7940   71.7880 C.3   441  LEU441      0.0001
    136  CD2       50.7290   27.9880   71.6860 C.3   441  LEU441      0.0001
    137  N         45.6560   31.2190   73.1450 N.3   469  ARG469     -0.1245
    138  CA        46.8620   31.8800   73.5850 C.3   469  ARG469      0.1563
    139  C         46.7970   32.1910   75.0850 C.2   469  ARG469      0.2260
    140  O         47.6880   31.8200   75.8420 O.2   469  ARG469     -0.2867
    141  CB        47.0660   33.1440   72.7480 C.3   469  ARG469      0.0307
    142  CG        48.4770   33.6990   72.7510 C.3   469  ARG469      0.0489
    143  CD        48.7660   34.4090   74.0560 C.3   469  ARG469      0.2205
    144  NE        47.8840   35.5520   74.2270 N.pl3 469  ARG469     -0.0865
    145  CZ        47.7220   36.2270   75.3600 C.cat 469  ARG469      0.5346
    146  NH1       48.3910   35.8700   76.4550 N.pl3 469  ARG469      0.1354
    147  NH2       46.8850   37.2620   75.3900 N.pl3 469  ARG469      0.1354
    148  N         49.1870   30.6430   78.0520 N.3   473  SER473     -0.1217
    149  CA        49.9770   31.5750   78.8520 C.3   473  SER473      0.1889
    150  C         49.7520   31.4010   80.3520 C.2   473  SER473      0.2288
    151  O         50.6670   31.6310   81.1480 O.2   473  SER473     -0.2866
    152  CB        49.6540   33.0310   78.4840 C.3   473  SER473      0.2089
    153  OG        50.4380   33.4730   77.3830 O.3   473  SER473     -0.2183
    154  N         51.4640   27.0790   84.1960 N.3   476  GLU476     -0.1245
    155  CA        52.7760   27.2800   84.7690 C.3   476  GLU476      0.1567
    156  C         53.5590   25.9770   84.7790 C.2   476  GLU476      0.2260
    157  O         54.3780   25.7530   83.8960 O.2   476  GLU476     -0.2867
    158  CB        52.6310   27.8550   86.1660 C.3   476  GLU476      0.0388
    159  CG        52.3680   29.3390   86.1280 C.3   476  GLU476      0.1160
    160  CD        53.6040   30.1200   85.7430 C.2   476  GLU476      0.3649
    161  OE1       54.5860   29.5070   85.2720 O.co2 476  GLU476     -0.2457
    162  OE2       53.5980   31.3510   85.9110 O.co2 476  GLU476     -0.2457
@<TRIPOS>BOND
     1   116   117    1
     2   102   101    2
     3    99   100    1
     4   100   101    1
     5   100   103    1
     6   121   122    1
     7   110   111    1
     8   109   108    2
     9   101   106   am
    10   108   107    1
    11   112   113    2
    12   112   111    1
    13   117   118    1
    14   117   120    1
    15   119   118    2
    16   104   103    1
    17   129   130    1
    18   105   103    1
    19   123   122    1
    20   123   124    2
    21   111   114    1
    22   106   107    1
    23    91    92    1
    24   131   132    2
    25   131   130    1
    26   122   125    1
    27   130   133    1
    28   114   115    1
    29    92    93    1
    30    92    95    1
    31    93    94    2
    32   125   126    1
    33   126   128    1
    34   126   127    1
    35   133   134    1
    36   115    39    1
    37    98    96    1
    38    95    96    1
    39    96    97    1
    40   134   136    1
    41   134   135    1
    42    39    38    1
    43    47    49   ar
    44    47    45   ar
    45    15    13    1
    46    16    14    1
    47    49    50   ar
    48    38    35    1
    49    44    45    1
    50    44    41    1
    51    14    13    1
    52   141   142    1
    53   141   138    1
    54   142   143    1
    55    57    56    1
    56    45    46   ar
    57    13    10    1
    58   137   138    1
    59    35    36    1
    60    35    34    1
    61    42    41    1
    62    42    43    2
    63    37    36    2
    64    40    41    1
    65    50    48   ar
    66   138   139    1
    67   143   144    1
    68    46    48   ar
    69    56    55    1
    70    56    58    1
    71    10    11    1
    72    10     9    1
    73   144   145    2
    74    12    11    2
    75    34    28   am
    76    55    52    1
    77    29    28    2
    78    28    27    1
    79    79    77   ar
    80    79    80   ar
    81     8     6    1
    82   139   140    2
    83    77    75   ar
    84    81    80    1
    85    80    78   ar
    86     9     3   am
    87    30    27    1
    88    30    31    1
    89   145   147    1
    90   145   146    1
    91    75    76   ar
    92    75    74    1
    93    78    76   ar
    94    52    53    1
    95    52    51    1
    96    53    54    2
    97    74    71    1
    98    27    26    1
    99     3     4    2
   100     3     2    1
   101    31    32    2
   102    31    33   am
   103     6     5    1
   104     6     7    1
   105    26    19   am
   106     5     2    1
   107   153   152    1
   108    71    72    1
   109    71    70    1
   110    19    20    2
   111    19    18    1
   112     2     1    1
   113    17    18    1
   114    72    73    2
   115    70    61   am
   116    68    67    1
   117   148   149    1
   118    18    21    1
   119   152   149    1
   120    89    88    1
   121    89    90    1
   122   149   150    1
   123    88    87    1
   124    63    60    1
   125    63    64    1
   126    61    60    1
   127    61    62    2
   128    59    60    1
   129    67    69    1
   130    67    66    2
   131    21    22    1
   132    65    66    1
   133    65    64    1
   134    86    87    1
   135    86    83    1
   136   150   151    2
   137    24    23    2
   138    84    83    1
   139    84    85    2
   140    22    23    1
   141    23    25   am
   142    83    82    1
   143   157   156    2
   144   154   155    1
   145   155   156    1
   146   155   158    1
   147   161   160   ar
   148   160   162   ar
   149   160   159    1
   150   159   158    1
