@<TRIPOS>MOLECULE
tmp/2bxeB02.pdb
 159 151 0 0 0
SMALL
GASTEIGER

@<TRIPOS>ATOM
      1  N         47.4960   25.9070   51.1280 N.3   134  TYR134     -0.1241
      2  CA        46.5080   26.6360   50.3220 C.3   134  TYR134      0.1605
      3  C         46.8280   26.5240   48.8120 C.2   134  TYR134      0.2264
      4  O         47.7240   27.2090   48.2940 O.2   134  TYR134     -0.2867
      5  CB        46.5090   28.1030   50.7740 C.3   134  TYR134      0.0534
      6  CG        45.3210   28.9190   50.3260 C.ar  134  TYR134     -0.0201
      7  CD1       44.0710   28.3170   50.0840 C.ar  134  TYR134     -0.0009
      8  CD2       45.4310   30.3030   50.1770 C.ar  134  TYR134     -0.0009
      9  CE1       42.9630   29.0810   49.7040 C.ar  134  TYR134      0.0417
     10  CE2       44.3330   31.0800   49.8040 C.ar  134  TYR134      0.0417
     11  CZ        43.1090   30.4660   49.5700 C.ar  134  TYR134      0.1957
     12  OH        42.0420   31.2450   49.2120 O.3   134  TYR134     -0.2866
     13  N         43.7560   28.1200   59.7520 N.3   183  LYS183     -0.1245
     14  CA        42.4660   28.3830   59.1210 C.3   183  LYS183      0.1561
     15  C         41.6670   27.1060   59.0230 C.2   183  LYS183      0.2260
     16  O         40.4970   27.0470   59.4130 O.2   183  LYS183     -0.2867
     17  CB        42.6440   28.9600   57.7070 C.3   183  LYS183      0.0271
     18  CG        43.0730   30.4330   57.6590 C.3   183  LYS183      0.0035
     19  CD        42.8690   31.0510   56.2830 C.3   183  LYS183      0.0206
     20  CE        44.1810   31.6330   55.7650 C.3   183  LYS183      0.1093
     21  NZ        44.5730   32.7830   56.6310 N.3   183  LYS183     -0.1314
     22  N         36.5920   35.4710   62.9970 N.3   198  TRP198     -0.1241
     23  CA        37.9470   35.9570   62.6860 C.3   198  TRP198      0.1605
     24  C         37.9490   36.7860   61.4010 C.2   198  TRP198      0.2264
     25  O         38.5950   37.8160   61.3140 O.2   198  TRP198     -0.2867
     26  CB        38.9170   34.7830   62.5500 C.3   198  TRP198      0.0550
     27  CG        40.2180   35.2510   61.9870 C.ar  198  TRP198      0.0003
     28  CD1       41.2620   35.8170   62.6840 C.ar  198  TRP198      0.0946
     29  CD2       40.6080   35.2180   60.6020 C.ar  198  TRP198      0.0152
     30  NE1       42.2390   36.1950   61.8100 N.ar  198  TRP198     -0.2442
     31  CE2       41.8490   35.8420   60.5270 C.ar  198  TRP198      0.0810
     32  CE3       40.0220   34.7120   59.4110 C.ar  198  TRP198      0.0012
     33  CZ2       42.4810   36.0690   59.3040 C.ar  198  TRP198      0.0191
     34  CZ3       40.6780   34.9060   58.2190 C.ar  198  TRP198      0.0001
     35  CH2       41.8790   35.5990   58.1790 C.ar  198  TRP198      0.0015
     36  N         39.1540   40.6900   60.9770 N.3   202  ARG202     -0.1231
     37  CA        40.3490   40.8500   60.1610 C.3   202  ARG202      0.1694
     38  C         40.1500   41.7820   58.9590 C.2   202  ARG202      0.2591
     39  O         40.9720   42.6760   58.7360 O.2   202  ARG202     -0.2718
     40  CB        40.8470   39.4790   59.7060 C.3   202  ARG202      0.0321
     41  CG        42.1820   39.5340   59.0110 C.3   202  ARG202      0.0489
     42  CD        43.2160   40.1710   59.8960 C.3   202  ARG202      0.2205
     43  NE        44.5050   40.2690   59.2240 N.pl3 202  ARG202     -0.0865
     44  CZ        45.6020   40.7510   59.7980 C.cat 202  ARG202      0.5346
     45  NH1       45.5560   41.1760   61.0610 N.pl3 202  ARG202      0.1354
     46  NH2       46.7410   40.8170   59.1100 N.pl3 202  ARG202      0.1354
     47  N         39.0690   41.5720   58.1990 N.am  203  LEU203     -0.1980
     48  CA        38.7460   42.4010   57.0310 C.3   203  LEU203      0.1596
     49  C         38.3980   43.8270   57.4600 C.2   203  LEU203      0.2287
     50  O         38.8300   44.7990   56.8500 O.2   203  LEU203     -0.2864
     51  CB        37.5560   41.8210   56.2740 C.3   203  LEU203      0.0297
     52  CG        37.7210   40.4190   55.7050 C.3   203  LEU203      0.0022
     53  CD1       36.6120   40.1020   54.7160 C.3   203  LEU203      0.0001
     54  CD2       39.0280   40.3460   55.0100 C.3   203  LEU203      0.0001
     55  N         41.3020   45.8780   57.7410 N.3   206  ARG206     -0.1231
     56  CA        41.9070   46.2630   56.4650 C.3   206  ARG206      0.1694
     57  C         41.0330   47.1790   55.6220 C.2   206  ARG206      0.2592
     58  O         41.5310   48.0550   54.9250 O.2   206  ARG206     -0.2718
     59  CB        42.2820   45.0100   55.6610 C.3   206  ARG206      0.0321
     60  CG        43.7760   44.7160   55.6310 C.3   206  ARG206      0.0489
     61  CD        44.0470   43.2630   55.9210 C.3   206  ARG206      0.2205
     62  NE        45.4280   42.8600   55.7090 N.pl3 206  ARG206     -0.0865
     63  CZ        45.8420   41.5940   55.6630 C.cat 206  ARG206      0.5346
     64  NH1       44.9830   40.5890   55.8030 N.pl3 206  ARG206      0.1354
     65  NH2       47.1320   41.3300   55.5000 N.pl3 206  ARG206      0.1354
     66  N         39.7280   46.9750   55.6780 N.am  207  PHE207     -0.1976
     67  CA        38.8060   47.8090   54.9230 C.3   207  PHE207      0.1639
     68  C         37.9270   48.6000   55.9130 C.2   207  PHE207      0.2290
     69  O         36.7030   48.4310   55.9660 O.2   207  PHE207     -0.2864
     70  CB        37.9470   46.9250   54.0170 C.3   207  PHE207      0.0560
     71  CG        38.7410   45.9720   53.1530 C.ar  207  PHE207     -0.0200
     72  CD1       39.9900   46.3330   52.6480 C.ar  207  PHE207     -0.0042
     73  CD2       38.1910   44.7450   52.7690 C.ar  207  PHE207     -0.0042
     74  CE1       40.6750   45.4850   51.7660 C.ar  207  PHE207     -0.0003
     75  CE2       38.8630   43.8910   51.8880 C.ar  207  PHE207     -0.0003
     76  CZ        40.1040   44.2590   51.3840 C.ar  207  PHE207     -0.0000
     77  N         34.5620   34.3680   51.1310 N.3   222  LEU222     -0.1245
     78  CA        35.8520   33.9470   51.6450 C.3   222  LEU222      0.1561
     79  C         35.7180   32.6310   52.4180 C.2   222  LEU222      0.2260
     80  O         36.5270   31.7150   52.2650 O.2   222  LEU222     -0.2867
     81  CB        36.4250   35.0450   52.5380 C.3   222  LEU222      0.0270
     82  CG        37.8980   34.8760   52.8820 C.3   222  LEU222      0.0019
     83  CD1       38.6480   34.4810   51.6170 C.3   222  LEU222      0.0001
     84  CD2       38.4640   36.1680   53.4860 C.3   222  LEU222      0.0001
     85  N         35.4230   29.7880   50.1450 N.3   225  VAL225     -0.1231
     86  CA        36.6360   29.4770   49.4320 C.3   225  VAL225      0.1692
     87  C         37.4100   28.5020   50.3080 C.2   225  VAL225      0.2592
     88  O         37.6080   27.3320   49.9570 O.2   225  VAL225     -0.2718
     89  CB        37.4830   30.7260   49.2000 C.3   225  VAL225      0.0266
     90  CG1       38.8910   30.3350   48.7840 C.3   225  VAL225      0.0020
     91  CG2       36.8480   31.5770   48.1230 C.3   225  VAL225      0.0020
     92  N         37.8210   28.9960   51.4720 N.am  226  HIS226     -0.1976
     93  CA        38.5810   28.2100   52.4270 C.3   226  HIS226      0.1656
     94  C         37.8890   26.9490   52.9150 C.2   226  HIS226      0.2291
     95  O         38.5490   26.0080   53.3590 O.2   226  HIS226     -0.2864
     96  CB        38.9750   29.0880   53.6020 C.3   226  HIS226      0.0771
     97  CG        40.0950   30.0220   53.2840 C.ar  226  HIS226      0.0820
     98  ND1       41.3100   29.5810   52.8040 N.ar  226  HIS226     -0.2267
     99  CD2       40.2010   31.3670   53.3970 C.ar  226  HIS226      0.1154
    100  CE1       42.1200   30.6130   52.6390 C.ar  226  HIS226      0.1986
    101  NE2       41.4720   31.7090   52.9920 N.ar  226  HIS226     -0.2212
    102  N         38.0040   31.3530   44.2560 N.3   241  ARG241     -0.1245
    103  CA        38.9630   32.3130   44.7610 C.3   241  ARG241      0.1563
    104  C         39.2220   33.3760   43.7000 C.2   241  ARG241      0.2260
    105  O         39.4910   34.5500   44.0130 O.2   241  ARG241     -0.2867
    106  CB        40.2890   31.6320   45.1190 C.3   241  ARG241      0.0307
    107  CG        41.2450   32.6030   45.7940 C.3   241  ARG241      0.0489
    108  CD        42.6730   32.1180   45.8700 C.3   241  ARG241      0.2205
    109  NE        43.4670   33.0130   46.7060 N.pl3 241  ARG241     -0.0865
    110  CZ        44.7760   33.1980   46.5750 C.cat 241  ARG241      0.5346
    111  NH1       45.4470   32.5490   45.6270 N.pl3 241  ARG241      0.1354
    112  NH2       45.4160   34.0190   47.3990 N.pl3 241  ARG241      0.1354
    113  N         36.1480   35.7940   43.3740 N.3   244  LEU244     -0.1231
    114  CA        36.1750   36.7770   44.4510 C.3   244  LEU244      0.1693
    115  C         37.2570   37.8400   44.2790 C.2   244  LEU244      0.2591
    116  O         37.1280   38.9520   44.7930 O.2   244  LEU244     -0.2718
    117  CB        36.3250   36.0810   45.8060 C.3   244  LEU244      0.0284
    118  CG        36.1040   37.0140   47.0040 C.3   244  LEU244      0.0019
    119  CD1       35.6420   36.2170   48.2010 C.3   244  LEU244      0.0001
    120  CD2       37.3750   37.7690   47.3190 C.3   244  LEU244      0.0001
    121  N         38.3280   37.4980   43.5700 N.am  245  ALA245     -0.1980
    122  CA        39.3950   38.4630   43.3270 C.3   245  ALA245      0.1597
    123  C         38.8650   39.4170   42.2580 C.2   245  ALA245      0.2287
    124  O         39.1750   40.6120   42.2500 O.2   245  ALA245     -0.2864
    125  CB        40.6440   37.7580   42.8320 C.3   245  ALA245      0.0319
    126  N         36.1320   41.8050   44.0290 N.3   248  ILE248     -0.1245
    127  CA        36.7460   42.8380   44.8470 C.3   248  ILE248      0.1561
    128  C         37.2800   43.9910   44.0180 C.2   248  ILE248      0.2260
    129  O         37.0970   45.1590   44.3630 O.2   248  ILE248     -0.2867
    130  CB        37.9010   42.2660   45.7040 C.3   248  ILE248      0.0252
    131  CG1       37.3380   41.4130   46.8420 C.3   248  ILE248      0.0019
    132  CG2       38.7530   43.3990   46.2580 C.3   248  ILE248      0.0019
    133  CD1       38.3890   40.8940   47.7880 C.3   248  ILE248      0.0001
    134  N         45.2340   37.9450   43.2720 N.3   271  SER271     -0.1217
    135  CA        44.7590   37.3510   44.5180 C.3   271  SER271      0.1889
    136  C         45.7940   37.3760   45.6360 C.2   271  SER271      0.2288
    137  O         45.4840   37.7810   46.7500 O.2   271  SER271     -0.2866
    138  CB        44.3100   35.9080   44.2920 C.3   271  SER271      0.2089
    139  OG        43.1330   35.8470   43.5090 O.3   271  SER271     -0.2183
    140  N         46.0910   40.9790   46.8400 N.3   274  ILE274     -0.1231
    141  CA        44.9470   41.4050   47.6340 C.3   274  ILE274      0.1692
    142  C         45.0230   40.8520   49.0530 C.2   274  ILE274      0.2591
    143  O         44.9180   41.5960   50.0290 O.2   274  ILE274     -0.2718
    144  CB        43.6260   40.9270   46.9710 C.3   274  ILE274      0.0266
    145  CG1       43.5070   41.5460   45.5740 C.3   274  ILE274      0.0019
    146  CG2       42.4300   41.2780   47.8410 C.3   274  ILE274      0.0020
    147  CD1       42.3160   41.0730   44.7900 C.3   274  ILE274      0.0001
    148  N         45.2290   39.5440   49.1600 N.am  275  ALA275     -0.1980
    149  CA        45.2870   38.8750   50.4520 C.3   275  ALA275      0.1597
    150  C         46.3030   39.4600   51.4130 C.2   275  ALA275      0.2287
    151  O         46.2100   39.2460   52.6190 O.2   275  ALA275     -0.2864
    152  CB        45.5560   37.3920   50.2570 C.3   275  ALA275      0.0319
    153  N         47.2350   42.8870   51.2280 N.3   277  VAL277     -0.1245
    154  CA        47.1800   44.3390   51.0980 C.3   277  VAL277      0.1561
    155  C         47.2100   45.0200   52.4590 C.2   277  VAL277      0.2260
    156  O         46.7760   44.4490   53.4600 O.2   277  VAL277     -0.2867
    157  CB        45.9080   44.7800   50.3600 C.3   277  VAL277      0.0252
    158  CG1       44.6870   44.2290   51.0690 C.3   277  VAL277      0.0019
    159  CG2       45.8440   46.3030   50.2830 C.3   277  VAL277      0.0019
@<TRIPOS>BOND
     1   124   123    2
     2   123   122    1
     3   125   122    1
     4   134   135    1
     5   122   121    1
     6   113   114    1
     7   139   138    1
     8   121   115   am
     9   104   105    2
    10   104   103    1
    11   128   129    2
    12   128   127    1
    13   126   127    1
    14   102   103    1
    15   115   114    1
    16   115   116    2
    17   138   135    1
    18   114   117    1
    19   135   136    1
    20   103   106    1
    21   147   145    1
    22   127   130    1
    23   106   107    1
    24   145   144    1
    25   111   110    1
    26   136   137    2
    27   130   132    1
    28   130   131    1
    29   107   108    1
    30   117   118    1
    31   108   109    1
    32   110   109    2
    33   110   112    1
    34   140   141    1
    35   131   133    1
    36   144   141    1
    37   144   146    1
    38   118   120    1
    39   118   119    1
    40   141   142    1
    41    91    89    1
    42     4     3    2
    43    90    89    1
    44     3     2    1
    45   142   148   am
    46   142   143    2
    47   148   149    1
    48    89    86    1
    49    12    11    1
    50    86    85    1
    51    86    87    1
    52    11     9   ar
    53    11    10   ar
    54     9     7   ar
    55    10     8   ar
    56    88    87    2
    57     7     6   ar
    58     8     6   ar
    59   152   149    1
    60   159   157    1
    61    87    92   am
    62     2     5    1
    63     2     1    1
    64     6     5    1
    65   157   158    1
    66   157   154    1
    67   149   150    1
    68   154   153    1
    69   154   155    1
    70    77    78    1
    71    76    74   ar
    72    76    75   ar
    73   150   151    2
    74    92    93    1
    75    83    82    1
    76    78    79    1
    77    78    81    1
    78    74    72   ar
    79    75    73   ar
    80    80    79    2
    81    93    94    1
    82    93    96    1
    83   155   156    2
    84    81    82    1
    85   100    98   ar
    86   100   101   ar
    87    72    71   ar
    88    73    71   ar
    89    98    97   ar
    90    82    84    1
    91    94    95    2
    92   101    99   ar
    93    71    70    1
    94    97    99   ar
    95    97    96    1
    96    70    67    1
    97    53    52    1
    98    67    66    1
    99    67    68    1
   100    58    57    2
   101    54    52    1
   102    65    63    1
   103    57    66   am
   104    57    56    1
   105    60    59    1
   106    60    61    1
   107    59    56    1
   108    63    62    2
   109    63    64    1
   110    52    51    1
   111    62    61    1
   112    20    19    1
   113    20    21    1
   114    68    69    2
   115    51    48    1
   116    19    18    1
   117    56    55    1
   118    50    49    2
   119    48    49    1
   120    48    47    1
   121    18    17    1
   122    17    14    1
   123    35    34   ar
   124    35    33   ar
   125    47    38   am
   126    34    32   ar
   127    39    38    2
   128    38    37    1
   129    41    40    1
   130    41    42    1
   131    15    14    1
   132    15    16    2
   133    46    44    1
   134    14    13    1
   135    43    44    2
   136    43    42    1
   137    33    31   ar
   138    32    29   ar
   139    40    37    1
   140    44    45    1
   141    37    36    1
   142    31    29   ar
   143    31    30   ar
   144    29    27   ar
   145    25    24    2
   146    24    23    1
   147    30    28   ar
   148    27    26    1
   149    27    28   ar
   150    26    23    1
   151    23    22    1
