@<TRIPOS>MOLECULE
tmp/2bxeB00.pdb
 161 151 0 0 0
SMALL
GASTEIGER

@<TRIPOS>ATOM
      1  N         53.3040   40.8330   78.5380 N.3   371  LEU371     -0.1231
      2  CA        53.9060   39.5130   78.3170 C.3   371  LEU371      0.1693
      3  C         54.8560   39.7320   77.1310 C.2   371  LEU371      0.2591
      4  O         56.0210   39.3070   77.1750 O.2   371  LEU371     -0.2718
      5  CB        52.8470   38.4820   77.9300 C.3   371  LEU371      0.0284
      6  CG        53.3630   37.0440   77.7800 C.3   371  LEU371      0.0019
      7  CD1       52.8350   36.1620   78.9000 C.3   371  LEU371      0.0001
      8  CD2       52.9190   36.4750   76.4510 C.3   371  LEU371      0.0001
      9  N         54.3550   40.4060   76.0910 N.am  372  ILE372     -0.1980
     10  CA        55.1740   40.7350   74.9250 C.3   372  ILE372      0.1595
     11  C         56.2830   41.6950   75.3800 C.2   372  ILE372      0.2287
     12  O         57.4460   41.4580   75.1130 O.2   372  ILE372     -0.2864
     13  CB        54.3650   41.4440   73.7730 C.3   372  ILE372      0.0276
     14  CG1       53.1430   40.6180   73.3770 C.3   372  ILE372      0.0022
     15  CG2       55.2490   41.6560   72.5340 C.3   372  ILE372      0.0022
     16  CD1       53.4260   39.1590   73.1940 C.3   372  ILE372      0.0001
     17  N         59.0950   39.3670   77.4830 N.3   375  ASN375     -0.1225
     18  CA        59.8350   38.4510   76.6300 C.3   375  ASN375      0.1785
     19  C         60.7090   39.0730   75.5440 C.2   375  ASN375      0.2597
     20  O         61.7990   38.5610   75.2620 O.2   375  ASN375     -0.2718
     21  CB        58.8820   37.4970   75.9820 C.3   375  ASN375      0.1169
     22  CG        58.3120   36.4950   76.9740 C.2   375  ASN375      0.2627
     23  OD1       58.9570   35.5050   77.3450 O.2   375  ASN375     -0.2716
     24  ND2       57.0960   36.7570   77.4250 N.am  375  ASN375     -0.0877
     25  N         60.2340   40.1290   74.8960 N.am  376  CYS376     -0.1970
     26  CA        61.0330   40.7980   73.8580 C.3   376  CYS376      0.1712
     27  C         62.2420   41.4330   74.4390 C.2   376  CYS376      0.2296
     28  O         63.2840   41.5590   73.8110 O.2   376  CYS376     -0.2864
     29  CB        60.1970   41.8580   73.1310 C.3   376  CYS376      0.0983
     30  SG        59.1940   41.1460   71.8990 S.3   376  CYS376     -0.0798
     31  N         67.2690   32.3620   73.7240 N.3   387  PHE387     -0.1241
     32  CA        65.8370   32.6210   73.8950 C.3   387  PHE387      0.1605
     33  C         65.0150   31.3620   73.5830 C.2   387  PHE387      0.2264
     34  O         64.0530   31.0460   74.2850 O.2   387  PHE387     -0.2867
     35  CB        65.3830   33.7680   72.9790 C.3   387  PHE387      0.0534
     36  CG        63.9790   34.2640   73.2700 C.ar  387  PHE387     -0.0203
     37  CD1       63.6810   34.8580   74.4920 C.ar  387  PHE387     -0.0042
     38  CD2       62.9370   34.0640   72.3590 C.ar  387  PHE387     -0.0042
     39  CE1       62.3700   35.2350   74.8140 C.ar  387  PHE387     -0.0003
     40  CE2       61.6210   34.4370   72.6800 C.ar  387  PHE387     -0.0003
     41  CZ        61.3420   35.0220   73.9120 C.ar  387  PHE387     -0.0000
     42  N         62.6770   28.9600   76.1870 N.3   391  LEU391     -0.1245
     43  CA        61.3180   28.5250   75.9110 C.3   391  LEU391      0.1561
     44  C         61.1910   27.0160   75.8960 C.2   391  LEU391      0.2260
     45  O         60.1100   26.4800   76.1700 O.2   391  LEU391     -0.2867
     46  CB        60.8120   29.1190   74.6030 C.3   391  LEU391      0.0270
     47  CG        60.6880   30.6410   74.5630 C.3   391  LEU391      0.0019
     48  CD1       60.3100   31.0040   73.1470 C.3   391  LEU391      0.0001
     49  CD2       59.6480   31.1560   75.5340 C.3   391  LEU391      0.0001
     50  N         60.9840   26.0340   79.6810 N.3   394  ARG394     -0.1231
     51  CA        59.6330   26.4380   80.0790 C.3   394  ARG394      0.1694
     52  C         58.5020   25.5820   79.5590 C.2   394  ARG394      0.2592
     53  O         57.6030   25.2330   80.3020 O.2   394  ARG394     -0.2718
     54  CB        59.3800   27.8620   79.6280 C.3   394  ARG394      0.0321
     55  CG        58.9430   28.8050   80.7100 C.3   394  ARG394      0.0489
     56  CD        58.6290   30.1140   80.0670 C.3   394  ARG394      0.2205
     57  NE        59.6320   31.1230   80.3550 N.pl3 394  ARG394     -0.0865
     58  CZ        59.7440   32.2590   79.6750 C.cat 394  ARG394      0.5346
     59  NH1       58.9170   32.5110   78.6630 N.pl3 394  ARG394      0.1354
     60  NH2       60.6590   33.1560   80.0260 N.pl3 394  ARG394      0.1354
     61  N         58.5430   25.2240   78.2800 N.am  395  TYR395     -0.1976
     62  CA        57.4270   24.4370   77.7760 C.3   395  TYR395      0.1639
     63  C         57.4860   22.9440   78.1640 C.2   395  TYR395      0.2290
     64  O         56.4420   22.2820   78.2980 O.2   395  TYR395     -0.2864
     65  CB        57.2990   24.6220   76.2230 C.3   395  TYR395      0.0560
     66  CG        56.2240   25.6610   75.9280 C.ar  395  TYR395     -0.0198
     67  CD1       56.4900   27.0170   76.1860 C.ar  395  TYR395     -0.0009
     68  CD2       54.9980   25.2860   75.4050 C.ar  395  TYR395     -0.0009
     69  CE1       55.5160   27.9750   75.9490 C.ar  395  TYR395      0.0417
     70  CE2       54.0000   26.2450   75.1910 C.ar  395  TYR395      0.0417
     71  CZ        54.2800   27.5890   75.4730 C.ar  395  TYR395      0.1957
     72  OH        53.2990   28.5230   75.2740 O.3   395  TYR395     -0.2866
     73  N         56.0640   22.5460   81.5780 N.3   398  LYS398     -0.1245
     74  CA        54.6050   22.6180   81.4870 C.3   398  LYS398      0.1561
     75  C         53.9570   21.3370   80.9650 C.2   398  LYS398      0.2260
     76  O         52.9410   20.8870   81.4870 O.2   398  LYS398     -0.2867
     77  CB        54.1880   23.7820   80.5830 C.3   398  LYS398      0.0271
     78  CG        54.7770   25.1280   80.9370 C.3   398  LYS398      0.0035
     79  CD        54.8360   25.9820   79.6620 C.3   398  LYS398      0.0206
     80  CE        53.8790   27.1630   79.6890 C.3   398  LYS398      0.1093
     81  NZ        54.1970   28.1680   80.7570 N.3   398  LYS398     -0.1314
     82  N         58.4550   29.0750   68.3490 N.3   414  LEU414     -0.1245
     83  CA        58.0690   30.0540   69.3470 C.3   414  LEU414      0.1561
     84  C         59.1510   31.1130   69.4880 C.2   414  LEU414      0.2260
     85  O         58.8580   32.3000   69.5450 O.2   414  LEU414     -0.2867
     86  CB        57.8150   29.3890   70.6980 C.3   414  LEU414      0.0270
     87  CG        56.4900   28.6230   70.7660 C.3   414  LEU414      0.0019
     88  CD1       56.3590   27.8580   72.0960 C.3   414  LEU414      0.0001
     89  CD2       55.3540   29.6350   70.5760 C.3   414  LEU414      0.0001
     90  N         59.2070   34.1720   66.7540 N.3   417  VAL417     -0.1231
     91  CA        58.4230   35.3730   66.9620 C.3   417  VAL417      0.1692
     92  C         59.3740   36.4550   67.4580 C.2   417  VAL417      0.2592
     93  O         59.4750   37.5020   66.8540 O.2   417  VAL417     -0.2718
     94  CB        57.3510   35.1590   68.0310 C.3   417  VAL417      0.0266
     95  CG1       56.4950   36.4010   68.1640 C.3   417  VAL417      0.0020
     96  CG2       56.5200   33.9440   67.6890 C.3   417  VAL417      0.0020
     97  N         60.0910   36.1940   68.5440 N.am  418  GLY418     -0.1957
     98  CA        61.0030   37.1950   69.0630 C.3   418  GLY418      0.1869
     99  C         61.7170   37.9620   67.9670 C.2   418  GLY418      0.2309
    100  O         61.6710   39.1910   67.9020 O.2   418  GLY418     -0.2863
    101  N         58.9950   39.8240   65.7060 N.3   421  CYS421     -0.1221
    102  CA        58.1430   40.8460   66.2730 C.3   421  CYS421      0.1808
    103  C         58.8160   41.8740   67.1140 C.2   421  CYS421      0.2601
    104  O         58.5530   43.0530   66.9930 O.2   421  CYS421     -0.2717
    105  CB        57.0910   40.2100   67.1320 C.3   421  CYS421      0.0970
    106  SG        56.0140   39.0840   66.2290 S.3   421  CYS421     -0.0800
    107  N         59.6730   41.4220   68.0040 N.am  422  CYS422     -0.1970
    108  CA        60.3580   42.3140   68.9150 C.3   422  CYS422      0.1712
    109  C         61.0960   43.5310   68.3360 C.2   422  CYS422      0.2296
    110  O         61.4150   44.4460   69.0910 O.2   422  CYS422     -0.2864
    111  CB        61.2990   41.4780   69.8000 C.3   422  CYS422      0.0983
    112  SG        60.5440   40.1570   70.7580 S.3   422  CYS422     -0.0798
    113  N         53.1770   39.4600   67.5960 N.3   433  ALA433     -0.1245
    114  CA        53.3790   38.4000   68.5710 C.3   433  ALA433      0.1562
    115  C         52.1660   37.5500   68.8440 C.2   433  ALA433      0.2260
    116  O         52.1260   36.3740   68.4760 O.2   433  ALA433     -0.2867
    117  CB        53.8730   38.9800   69.8570 C.3   433  ALA433      0.0290
    118  N         51.8080   33.7750   67.6020 N.3   437  LEU437     -0.1245
    119  CA        51.7280   32.7460   68.6270 C.3   437  LEU437      0.1561
    120  C         50.5300   31.7950   68.4270 C.2   437  LEU437      0.2260
    121  O         50.5570   30.6560   68.8780 O.2   437  LEU437     -0.2867
    122  CB        51.6720   33.3970   70.0090 C.3   437  LEU437      0.0270
    123  CG        52.9910   34.0170   70.4670 C.3   437  LEU437      0.0019
    124  CD1       52.8010   34.7910   71.7570 C.3   437  LEU437      0.0001
    125  CD2       54.0310   32.9180   70.6390 C.3   437  LEU437      0.0001
    126  N         51.2350   27.8030   68.2790 N.3   441  LEU441     -0.1245
    127  CA        50.4920   26.9370   69.1930 C.3   441  LEU441      0.1561
    128  C         49.5160   26.0260   68.4660 C.2   441  LEU441      0.2260
    129  O         49.1350   24.9680   68.9610 O.2   441  LEU441     -0.2867
    130  CB        49.7270   27.7560   70.2310 C.3   441  LEU441      0.0270
    131  CG        50.6410   28.4200   71.2590 C.3   441  LEU441      0.0019
    132  CD1       49.8250   29.2980   72.1630 C.3   441  LEU441      0.0001
    133  CD2       51.3840   27.3500   72.0580 C.3   441  LEU441      0.0001
    134  N         46.7960   30.6070   73.8750 N.3   469  ARG469     -0.1245
    135  CA        48.0030   31.1920   74.4340 C.3   469  ARG469      0.1563
    136  C         47.8260   31.4910   75.9230 C.2   469  ARG469      0.2260
    137  O         48.6940   31.1920   76.7480 O.2   469  ARG469     -0.2867
    138  CB        48.3740   32.4360   73.6470 C.3   469  ARG469      0.0307
    139  CG        49.8220   32.8230   73.7510 C.3   469  ARG469      0.0489
    140  CD        50.0260   33.6830   74.9620 C.3   469  ARG469      0.2205
    141  NE        48.9320   34.6390   75.0890 N.pl3 469  ARG469     -0.0865
    142  CZ        48.8180   35.5190   76.0750 C.cat 469  ARG469      0.5346
    143  NH1       49.7350   35.5690   77.0300 N.pl3 469  ARG469      0.1354
    144  NH2       47.7890   36.3520   76.1050 N.pl3 469  ARG469      0.1354
    145  N         48.0620   27.9740   77.9450 N.3   472  PHE472     -0.1227
    146  CA        49.4200   27.4810   78.0790 C.3   472  PHE472      0.1736
    147  C         50.2530   28.3690   78.9880 C.2   472  PHE472      0.2596
    148  O         51.0650   27.8950   79.7640 O.2   472  PHE472     -0.2718
    149  CB        50.0710   27.4040   76.7040 C.3   472  PHE472      0.0547
    150  CG        49.6390   26.2190   75.9120 C.ar  472  PHE472     -0.0202
    151  CD1       50.0310   24.9460   76.2940 C.ar  472  PHE472     -0.0042
    152  CD2       48.8340   26.3680   74.7990 C.ar  472  PHE472     -0.0042
    153  CE1       49.6310   23.8470   75.5740 C.ar  472  PHE472     -0.0003
    154  CE2       48.4270   25.2720   74.0740 C.ar  472  PHE472     -0.0003
    155  CZ        48.8200   24.0100   74.4550 C.ar  472  PHE472     -0.0000
    156  N         50.0460   29.6700   78.8800 N.am  473  SER473     -0.1952
    157  CA        50.7950   30.6260   79.6880 C.3   473  SER473      0.1924
    158  C         50.5060   30.4180   81.1510 C.2   473  SER473      0.2314
    159  O         51.3420   30.7000   82.0040 O.2   473  SER473     -0.2863
    160  CB        50.4210   32.0580   79.3020 C.3   473  SER473      0.2116
    161  OG        51.4520   32.6280   78.5250 O.3   473  SER473     -0.2180
@<TRIPOS>BOND
     1   101   102    1
     2   106   105    1
     3   102   103    1
     4   102   105    1
     5    90    91    1
     6    93    92    2
     7    91    92    1
     8    91    94    1
     9   104   103    2
    10   103   107   am
    11    92    97   am
    12   113   114    1
    13   118   119    1
    14    96    94    1
    15   100    99    2
    16    99    98    1
    17   107   108    1
    18    94    95    1
    19   126   127    1
    20   109   108    1
    21   109   110    2
    22    82    83    1
    23   120   119    1
    24   120   121    2
    25   128   129    2
    26   128   127    1
    27   116   115    2
    28    97    98    1
    29   114   115    1
    30   114   117    1
    31   119   122    1
    32   108   111    1
    33   127   130    1
    34    83    84    1
    35    83    86    1
    36    84    85    2
    37   111   112    1
    38   122   123    1
    39   130   131    1
    40   123   125    1
    41   123   124    1
    42    89    87    1
    43    86    87    1
    44   112    30    1
    45    87    88    1
    46   131   133    1
    47   131   132    1
    48    30    29    1
    49    38    40   ar
    50    38    36   ar
    51    15    13    1
    52    40    41   ar
    53    35    36    1
    54    35    32    1
    55    29    26    1
    56    48    47    1
    57    16    14    1
    58    36    37   ar
    59    14    13    1
    60    33    32    1
    61    33    34    2
    62   138   139    1
    63   138   135    1
    64    31    32    1
    65   139   140    1
    66    13    10    1
    67    28    27    2
    68    26    27    1
    69    26    25    1
    70   134   135    1
    71    41    39   ar
    72   154   155   ar
    73   154   152   ar
    74   135   136    1
    75   155   153   ar
    76    37    39   ar
    77    47    46    1
    78    47    49    1
    79    46    43    1
    80   152   150   ar
    81    25    19   am
    82    10    11    1
    83    10     9    1
    84   140   141    1
    85   141   142    2
    86    12    11    2
    87    70    68   ar
    88    70    71   ar
    89    20    19    2
    90    72    71    1
    91    68    66   ar
    92    71    69   ar
    93    19    18    1
    94   153   151   ar
    95    44    43    1
    96    44    45    2
    97    43    42    1
    98   150   151   ar
    99   150   149    1
   100   136   137    2
   101    66    67   ar
   102    66    65    1
   103    69    67   ar
   104    21    18    1
   105    21    22    1
   106   142   144    1
   107   142   143    1
   108     9     3   am
   109    65    62    1
   110     8     6    1
   111    18    17    1
   112   149   146    1
   113    22    23    2
   114    22    24   am
   115     3     4    2
   116     3     2    1
   117    62    63    1
   118    62    61    1
   119     6     5    1
   120     6     7    1
   121     5     2    1
   122   145   146    1
   123   146   147    1
   124    63    64    2
   125    61    52   am
   126     2     1    1
   127   161   160    1
   128    59    58    1
   129   156   147   am
   130   156   157    1
   131   147   148    2
   132   160   157    1
   133    52    51    1
   134    52    53    2
   135    54    51    1
   136    54    55    1
   137    79    80    1
   138    79    78    1
   139    58    60    1
   140    58    57    2
   141    50    51    1
   142   157   158    1
   143    80    81    1
   144    56    57    1
   145    56    55    1
   146    77    78    1
   147    77    74    1
   148    75    74    1
   149    75    76    2
   150   158   159    2
   151    74    73    1
