@<TRIPOS>MOLECULE
tmp/2bxeB01.pdb
 100 92 0 0 0
SMALL
GASTEIGER

@<TRIPOS>ATOM
      1  N         36.5110   23.9490   65.3690 N.3   190  PHE190     -0.1241
      2  CA        35.6080   24.9180   65.9650 C.3   190  PHE190      0.1605
      3  C         34.3940   25.3870   65.1670 C.2   190  PHE190      0.2264
      4  O         33.6230   26.2140   65.6460 O.2   190  PHE190     -0.2867
      5  CB        36.4300   26.1040   66.3940 C.3   190  PHE190      0.0534
      6  CG        37.5240   25.7420   67.3370 C.ar  190  PHE190     -0.0203
      7  CD1       37.2530   25.5470   68.6880 C.ar  190  PHE190     -0.0042
      8  CD2       38.8180   25.5720   66.8790 C.ar  190  PHE190     -0.0042
      9  CE1       38.2560   25.1900   69.5670 C.ar  190  PHE190     -0.0003
     10  CE2       39.8300   25.2130   67.7510 C.ar  190  PHE190     -0.0003
     11  CZ        39.5480   25.0220   69.1030 C.ar  190  PHE190     -0.0000
     12  N         31.0750   29.2440   62.7410 N.3   193  ARG193     -0.1231
     13  CA        30.9630   30.4340   63.5630 C.3   193  ARG193      0.1694
     14  C         32.2970   31.0480   64.0050 C.2   193  ARG193      0.2591
     15  O         32.3890   32.2500   64.2170 O.2   193  ARG193     -0.2718
     16  CB        30.0890   30.0990   64.7660 C.3   193  ARG193      0.0321
     17  CG        29.5290   31.3120   65.4690 C.3   193  ARG193      0.0489
     18  CD        28.8370   30.9410   66.7750 C.3   193  ARG193      0.2205
     19  NE        29.3390   31.7220   67.9150 N.pl3 193  ARG193     -0.0865
     20  CZ        28.6560   32.6760   68.5400 C.cat 193  ARG193      0.5346
     21  NH1       27.4280   32.9910   68.1480 N.pl3 193  ARG193      0.1354
     22  NH2       29.1950   33.3050   69.5710 N.pl3 193  ARG193      0.1354
     23  N         33.3380   30.2340   64.1240 N.am  194  ALA194     -0.1980
     24  CA        34.6450   30.7290   64.5580 C.3   194  ALA194      0.1597
     25  C         35.3550   31.4460   63.4250 C.2   194  ALA194      0.2287
     26  O         35.7820   32.5930   63.5730 O.2   194  ALA194     -0.2864
     27  CB        35.5040   29.5770   65.0470 C.3   194  ALA194      0.0319
     28  N         33.8370   34.8050   62.5010 N.3   197  ALA197     -0.1245
     29  CA        34.2320   35.7900   63.5000 C.3   197  ALA197      0.1562
     30  C         35.6180   36.3520   63.1910 C.2   197  ALA197      0.2260
     31  O         35.8100   37.5630   63.1300 O.2   197  ALA197     -0.2867
     32  CB        34.2140   35.1530   64.8860 C.3   197  ALA197      0.0290
     33  N         26.5620   40.8770   67.3250 N.3   311  LEU311     -0.1245
     34  CA        27.9500   40.6440   67.6920 C.3   311  LEU311      0.1561
     35  C         28.7760   40.8630   66.4350 C.2   311  LEU311      0.2260
     36  O         29.8330   41.4910   66.4930 O.2   311  LEU311     -0.2867
     37  CB        28.1340   39.2260   68.2250 C.3   311  LEU311      0.0270
     38  CG        27.6180   39.0400   69.6560 C.3   311  LEU311      0.0019
     39  CD1       27.7000   37.5810   70.0910 C.3   311  LEU311      0.0001
     40  CD2       28.4260   39.9250   70.5860 C.3   311  LEU311      0.0001
     41  N         31.9350   43.5020   66.5530 N.3   315  LEU315     -0.1245
     42  CA        33.2820   43.1390   66.1500 C.3   315  LEU315      0.1561
     43  C         33.7290   44.1520   65.1140 C.2   315  LEU315      0.2260
     44  O         34.6620   44.9150   65.3450 O.2   315  LEU315     -0.2867
     45  CB        33.2720   41.7260   65.5670 C.3   315  LEU315      0.0270
     46  CG        34.5440   40.8750   65.5980 C.3   315  LEU315      0.0019
     47  CD1       35.4220   41.1850   66.8200 C.3   315  LEU315      0.0001
     48  CD2       34.0850   39.4170   65.5860 C.3   315  LEU315      0.0001
     49  N         38.8080   39.2650   69.1200 N.3   331  LEU331     -0.1245
     50  CA        37.8870   38.1550   69.3180 C.3   331  LEU331      0.1561
     51  C         37.6760   37.8500   70.7780 C.2   331  LEU331      0.2260
     52  O         36.6190   37.3640   71.1640 O.2   331  LEU331     -0.2867
     53  CB        38.4120   36.9220   68.6070 C.3   331  LEU331      0.0270
     54  CG        38.4080   37.1690   67.0980 C.3   331  LEU331      0.0019
     55  CD1       39.2520   36.1240   66.3820 C.3   331  LEU331      0.0001
     56  CD2       36.9560   37.1590   66.6060 C.3   331  LEU331      0.0001
     57  N         35.5330   40.6550   72.0030 N.3   334  ALA334     -0.1231
     58  CA        34.2320   40.3700   71.4440 C.3   334  ALA334      0.1694
     59  C         33.4850   39.3360   72.2530 C.2   334  ALA334      0.2591
     60  O         32.2990   39.4740   72.5240 O.2   334  ALA334     -0.2718
     61  CB        34.3850   39.8920   70.0180 C.3   334  ALA334      0.0304
     62  N         34.2000   38.3030   72.6610 N.am  335  LYS335     -0.1980
     63  CA        33.5930   37.1970   73.3910 C.3   335  LYS335      0.1596
     64  C         33.2190   37.5870   74.8320 C.2   335  LYS335      0.2287
     65  O         32.1770   37.1640   75.3530 O.2   335  LYS335     -0.2864
     66  CB        34.5510   36.0000   73.3360 C.3   335  LYS335      0.0298
     67  CG        33.8600   34.6590   73.2410 C.3   335  LYS335      0.0038
     68  CD        34.8700   33.5370   73.2260 C.3   335  LYS335      0.0206
     69  CE        34.1490   32.2020   73.2470 C.3   335  LYS335      0.1093
     70  NZ        35.1010   31.0770   73.5340 N.3   335  LYS335     -0.1314
     71  N         29.9150   39.3450   74.5730 N.3   338  GLU338     -0.1245
     72  CA        28.8230   38.4010   74.4220 C.3   338  GLU338      0.1567
     73  C         28.4250   37.8060   75.7730 C.2   338  GLU338      0.2260
     74  O         27.2470   37.7700   76.1310 O.2   338  GLU338     -0.2867
     75  CB        29.2250   37.2870   73.4580 C.3   338  GLU338      0.0388
     76  CG        28.2630   36.1030   73.4300 C.3   338  GLU338      0.1160
     77  CD        28.7650   34.9740   72.5400 C.2   338  GLU338      0.3649
     78  OE1       29.9240   35.0610   72.0720 O.co2 338  GLU338     -0.2457
     79  OE2       28.0120   34.0000   72.3120 O.co2 338  GLU338     -0.2457
     80  N         39.1310   26.3670   73.9960 N.3   464  SER464     -0.1202
     81  CA        38.7930   27.5330   73.2140 C.3   464  SER464      0.2020
     82  C         39.9240   27.9130   72.2850 C.2   464  SER464      0.2619
     83  O         41.0980   27.9250   72.6590 O.2   464  SER464     -0.2717
     84  CB        38.4520   28.7050   74.1310 C.3   464  SER464      0.2103
     85  OG        39.3900   29.7550   73.9740 O.3   464  SER464     -0.2182
     86  N         39.5600   28.2260   71.0580 N.am  465  LEU465     -0.1965
     87  CA        40.5260   28.6080   70.0600 C.3   465  LEU465      0.1728
     88  C         41.1970   29.9300   70.3860 C.2   465  LEU465      0.2616
     89  O         42.4180   30.0350   70.3010 O.2   465  LEU465     -0.2715
     90  CB        39.8400   28.6890   68.7080 C.3   465  LEU465      0.0311
     91  CG        40.7630   28.8920   67.5160 C.3   465  LEU465      0.0022
     92  CD1       42.0170   28.0380   67.6410 C.3   465  LEU465      0.0001
     93  CD2       39.9730   28.5360   66.2650 C.3   465  LEU465      0.0001
     94  N         40.4020   30.9290   70.7680 N.am  466  VAL466     -0.1977
     95  CA        40.8970   32.2690   71.1000 C.3   466  VAL466      0.1596
     96  C         41.7550   32.3450   72.3690 C.2   466  VAL466      0.2287
     97  O         42.6420   33.2130   72.5020 O.2   466  VAL466     -0.2864
     98  CB        39.6910   33.2560   71.2620 C.3   466  VAL466      0.0276
     99  CG1       40.1240   34.5540   71.9430 C.3   466  VAL466      0.0022
    100  CG2       39.0800   33.5580   69.8980 C.3   466  VAL466      0.0022
@<TRIPOS>BOND
     1    28    29    1
     2    12    13    1
     3    31    30    2
     4    30    29    1
     5    25    26    2
     6    25    24    1
     7    29    32    1
     8    13    14    1
     9    13    16    1
    10    14    23   am
    11    14    15    2
    12    23    24    1
    13    24    27    1
    14    16    17    1
    15    43    44    2
    16    43    42    1
    17     3     4    2
    18     3     2    1
    19     1     2    1
    20    17    18    1
    21    45    46    1
    22    45    42    1
    23    48    46    1
    24    46    47    1
    25     2     5    1
    26    42    41    1
    27    93    91    1
    28    55    54    1
    29     5     6    1
    30    35    36    2
    31    35    34    1
    32    56    54    1
    33    18    19    1
    34     8     6   ar
    35     8    10   ar
    36    54    53    1
    37    33    34    1
    38     6     7   ar
    39    91    92    1
    40    91    90    1
    41    34    37    1
    42    10    11   ar
    43    19    20    2
    44    21    20    1
    45    37    38    1
    46    20    22    1
    47    53    50    1
    48     7     9   ar
    49    90    87    1
    50    11     9   ar
    51    49    50    1
    52    50    51    1
    53    38    39    1
    54    38    40    1
    55   100    98    1
    56    61    58    1
    57    87    88    1
    58    87    86    1
    59    89    88    2
    60    88    94   am
    61    94    95    1
    62    51    52    2
    63    86    82   am
    64    95    98    1
    65    95    96    1
    66    98    99    1
    67    58    57    1
    68    58    59    1
    69    78    77   ar
    70    59    60    2
    71    59    62   am
    72    82    83    2
    73    82    81    1
    74    79    77   ar
    75    96    97    2
    76    77    76    1
    77    62    63    1
    78    81    80    1
    79    81    84    1
    80    68    67    1
    81    68    69    1
    82    67    66    1
    83    69    70    1
    84    66    63    1
    85    63    64    1
    86    76    75    1
    87    75    72    1
    88    85    84    1
    89    72    71    1
    90    72    73    1
    91    64    65    2
    92    73    74    2
