@<TRIPOS>MOLECULE
tmp/2bxfB00.pdb
 149 140 0 0 0
SMALL
GASTEIGER

@<TRIPOS>ATOM
      1  N         48.1330   41.3070   77.7070 N.3   380  PRO380     -0.2116
      2  CA        48.9740   41.1340   76.5220 C.3   380  PRO380      0.1372
      3  C         50.0540   42.1800   76.3780 C.2   380  PRO380      0.2244
      4  O         51.1760   41.8850   75.9980 O.2   380  PRO380     -0.2868
      5  CB        47.9730   41.2050   75.3810 C.3   380  PRO380      0.0268
      6  CG        46.7730   40.5960   75.9770 C.3   380  PRO380      0.0207
      7  CD        46.7150   41.2760   77.3230 C.3   380  PRO380      0.0892
      8  N         52.9520   41.3750   79.0180 N.3   383  LEU383     -0.1231
      9  CA        53.7180   40.1850   78.6830 C.3   383  LEU383      0.1693
     10  C         54.6100   40.4900   77.4910 C.2   383  LEU383      0.2591
     11  O         55.7850   40.1240   77.4800 O.2   383  LEU383     -0.2718
     12  CB        52.7960   39.0410   78.3250 C.3   383  LEU383      0.0284
     13  CG        51.9030   38.5900   79.4680 C.3   383  LEU383      0.0019
     14  CD1       50.9220   37.5730   78.9330 C.3   383  LEU383      0.0001
     15  CD2       52.7430   38.0110   80.6050 C.3   383  LEU383      0.0001
     16  N         54.0400   41.1580   76.4910 N.am  384  ILE384     -0.1980
     17  CA        54.7650   41.5360   75.2840 C.3   384  ILE384      0.1595
     18  C         55.9450   42.4360   75.6200 C.2   384  ILE384      0.2287
     19  O         57.0210   42.3240   75.0280 O.2   384  ILE384     -0.2864
     20  CB        53.8800   42.3270   74.3280 C.3   384  ILE384      0.0276
     21  CG1       52.7580   41.4410   73.7830 C.3   384  ILE384      0.0022
     22  CG2       54.7340   42.9140   73.2120 C.3   384  ILE384      0.0022
     23  CD1       53.1660   40.5510   72.6650 C.3   384  ILE384      0.0001
     24  N         58.7090   39.9590   77.7050 N.3   387  ASN387     -0.1225
     25  CA        59.3550   39.0480   76.7680 C.3   387  ASN387      0.1785
     26  C         60.2820   39.7250   75.7600 C.2   387  ASN387      0.2597
     27  O         61.3570   39.2090   75.4730 O.2   387  ASN387     -0.2718
     28  CB        58.3040   38.2400   76.0270 C.3   387  ASN387      0.1169
     29  CG        57.7840   37.0860   76.8430 C.2   387  ASN387      0.2627
     30  OD1       58.4390   36.0470   76.9670 O.2   387  ASN387     -0.2716
     31  ND2       56.6000   37.2570   77.4160 N.am  387  ASN387     -0.0877
     32  N         59.8760   40.8690   75.2130 N.am  388  CYS388     -0.1970
     33  CA        60.7300   41.5570   74.2520 C.3   388  CYS388      0.1712
     34  C         62.0100   42.0540   74.8860 C.2   388  CYS388      0.2296
     35  O         63.0670   41.9330   74.2880 O.2   388  CYS388     -0.2864
     36  CB        60.0270   42.7430   73.6100 C.3   388  CYS388      0.0983
     37  SG        58.9440   42.3380   72.2180 S.3   388  CYS388     -0.0798
     38  N         66.8650   32.8810   74.1250 N.3   399  PHE399     -0.1241
     39  CA        65.4390   33.1270   74.3170 C.3   399  PHE399      0.1605
     40  C         64.6370   31.8780   73.9960 C.2   399  PHE399      0.2264
     41  O         63.5880   31.6320   74.5920 O.2   399  PHE399     -0.2867
     42  CB        64.9710   34.2760   73.4260 C.3   399  PHE399      0.0534
     43  CG        63.6060   34.7760   73.7690 C.ar  399  PHE399     -0.0203
     44  CD1       63.3580   35.3380   75.0130 C.ar  399  PHE399     -0.0042
     45  CD2       62.5420   34.6080   72.8830 C.ar  399  PHE399     -0.0042
     46  CE1       62.0800   35.7190   75.3800 C.ar  399  PHE399     -0.0003
     47  CE2       61.2530   34.9870   73.2460 C.ar  399  PHE399     -0.0003
     48  CZ        61.0260   35.5430   74.5040 C.ar  399  PHE399     -0.0000
     49  N         62.3370   29.5950   76.7380 N.3   403  LEU403     -0.1245
     50  CA        60.9960   29.1250   76.4050 C.3   403  LEU403      0.1561
     51  C         60.9180   27.6080   76.3690 C.2   403  LEU403      0.2260
     52  O         59.8820   27.0250   76.7080 O.2   403  LEU403     -0.2867
     53  CB        60.5680   29.6730   75.0470 C.3   403  LEU403      0.0270
     54  CG        60.5030   31.1850   74.8830 C.3   403  LEU403      0.0019
     55  CD1       60.2960   31.5330   73.4220 C.3   403  LEU403      0.0001
     56  CD2       59.3780   31.7180   75.7130 C.3   403  LEU403      0.0001
     57  N         60.6980   26.3110   79.9790 N.3   406  ARG406     -0.1231
     58  CA        59.3420   26.6690   80.4140 C.3   406  ARG406      0.1694
     59  C         58.2410   25.7800   79.8640 C.2   406  ARG406      0.2592
     60  O         57.3560   25.3690   80.5990 O.2   406  ARG406     -0.2718
     61  CB        58.9990   28.1130   80.0430 C.3   406  ARG406      0.0321
     62  CG        59.5180   29.1770   81.0030 C.3   406  ARG406      0.0489
     63  CD        58.8820   30.5320   80.6720 C.3   406  ARG406      0.2205
     64  NE        59.4610   31.0940   79.4460 N.pl3 406  ARG406     -0.0865
     65  CZ        60.6080   31.7650   79.4070 C.cat 406  ARG406      0.5346
     66  NH1       61.2820   31.9770   80.5390 N.pl3 406  ARG406      0.1354
     67  NH2       61.0790   32.2460   78.2670 N.pl3 406  ARG406      0.1354
     68  N         58.2670   25.4780   78.5790 N.am  407  TYR407     -0.1976
     69  CA        57.1980   24.6520   78.0600 C.3   407  TYR407      0.1639
     70  C         57.3450   23.1610   78.3420 C.2   407  TYR407      0.2290
     71  O         56.3520   22.4110   78.3740 O.2   407  TYR407     -0.2864
     72  CB        57.0240   24.9020   76.5680 C.3   407  TYR407      0.0560
     73  CG        56.1500   26.0940   76.2830 C.ar  407  TYR407     -0.0198
     74  CD1       56.6300   27.3890   76.4620 C.ar  407  TYR407     -0.0009
     75  CD2       54.8330   25.9270   75.8390 C.ar  407  TYR407     -0.0009
     76  CE1       55.8280   28.4910   76.2070 C.ar  407  TYR407      0.0417
     77  CE2       54.0140   27.0320   75.5780 C.ar  407  TYR407      0.0417
     78  CZ        54.5250   28.3070   75.7660 C.ar  407  TYR407      0.1957
     79  OH        53.7530   29.4130   75.5180 O.3   407  TYR407     -0.2866
     80  N         58.1720   29.4540   68.8290 N.3   426  LEU426     -0.1245
     81  CA        57.7130   30.3290   69.8890 C.3   426  LEU426      0.1561
     82  C         58.7480   31.4090   70.1490 C.2   426  LEU426      0.2260
     83  O         58.4180   32.4960   70.6000 O.2   426  LEU426     -0.2867
     84  CB        57.4610   29.5440   71.1790 C.3   426  LEU426      0.0270
     85  CG        56.2500   28.5990   71.2250 C.3   426  LEU426      0.0019
     86  CD1       56.1450   27.9120   72.5980 C.3   426  LEU426      0.0001
     87  CD2       55.0000   29.3940   70.9350 C.3   426  LEU426      0.0001
     88  N         59.0000   34.6010   67.5500 N.3   429  VAL429     -0.1231
     89  CA        58.0760   35.7020   67.7550 C.3   429  VAL429      0.1692
     90  C         58.9060   36.9240   68.1210 C.2   429  VAL429      0.2592
     91  O         58.8320   37.9480   67.4580 O.2   429  VAL429     -0.2718
     92  CB        57.0830   35.4100   68.9180 C.3   429  VAL429      0.0266
     93  CG1       56.1980   36.6180   69.1650 C.3   429  VAL429      0.0020
     94  CG2       56.2200   34.1980   68.5950 C.3   429  VAL429      0.0020
     95  N         59.7080   36.7920   69.1730 N.am  430  GLY430     -0.1957
     96  CA        60.5490   37.8860   69.6360 C.3   430  GLY430      0.1869
     97  C         61.3290   38.5990   68.5480 C.2   430  GLY430      0.2309
     98  O         61.3600   39.8280   68.5090 O.2   430  GLY430     -0.2863
     99  N         58.5620   40.1490   65.9750 N.3   433  CYS433     -0.1221
    100  CA        57.7520   41.2540   66.4490 C.3   433  CYS433      0.1808
    101  C         58.3830   42.3600   67.2590 C.2   433  CYS433      0.2601
    102  O         57.9610   43.5060   67.1740 O.2   433  CYS433     -0.2717
    103  CB        56.5790   40.6960   67.2530 C.3   433  CYS433      0.0970
    104  SG        55.5520   39.4780   66.3660 S.3   433  CYS433     -0.0800
    105  N         59.3930   42.0560   68.0480 N.am  434  CYS434     -0.1970
    106  CA        59.9370   43.1020   68.8940 C.3   434  CYS434      0.1712
    107  C         60.5180   44.3720   68.2810 C.2   434  CYS434      0.2296
    108  O         60.6630   45.3680   68.9900 O.2   434  CYS434     -0.2864
    109  CB        60.9110   42.4860   69.8880 C.3   434  CYS434      0.0983
    110  SG        60.0700   41.2510   70.9310 S.3   434  CYS434     -0.0798
    111  N         52.7030   39.7850   67.4710 N.3   445  ALA445     -0.1231
    112  CA        52.9980   38.7930   68.4610 C.3   445  ALA445      0.1694
    113  C         51.9010   37.7700   68.7610 C.2   445  ALA445      0.2591
    114  O         52.0410   36.5910   68.4460 O.2   445  ALA445     -0.2718
    115  CB        53.4070   39.4840   69.7200 C.3   445  ALA445      0.0304
    116  N         50.7990   38.2030   69.3580 N.am  446  GLU446     -0.1979
    117  CA        49.7630   37.2550   69.7350 C.3   446  GLU446      0.1602
    118  C         49.1480   36.4380   68.6110 C.2   446  GLU446      0.2287
    119  O         48.8370   35.2640   68.7870 O.2   446  GLU446     -0.2864
    120  CB        48.6730   37.9580   70.5460 C.3   446  GLU446      0.0415
    121  CG        47.7630   36.9920   71.3030 C.3   446  GLU446      0.1163
    122  CD        46.9480   37.6700   72.3980 C.2   446  GLU446      0.3649
    123  OE1       47.0490   38.9100   72.5560 O.co2 446  GLU446     -0.2457
    124  OE2       46.2080   36.9570   73.1070 O.co2 446  GLU446     -0.2457
    125  N         51.6930   33.8460   67.5160 N.3   449  LEU449     -0.1245
    126  CA        51.6850   32.9070   68.6210 C.3   449  LEU449      0.1561
    127  C         50.4870   31.9520   68.5600 C.2   449  LEU449      0.2260
    128  O         50.5540   30.8270   69.0580 O.2   449  LEU449     -0.2867
    129  CB        51.6560   33.6820   69.9310 C.3   449  LEU449      0.0270
    130  CG        51.7620   32.8200   71.1830 C.3   449  LEU449      0.0019
    131  CD1       52.9810   31.9280   71.0730 C.3   449  LEU449      0.0001
    132  CD2       51.8700   33.7090   72.4160 C.3   449  LEU449      0.0001
    133  N         46.0950   30.9320   74.1250 N.3   481  ARG481     -0.1245
    134  CA        47.2930   31.5680   74.6510 C.3   481  ARG481      0.1563
    135  C         47.2430   31.7900   76.1550 C.2   481  ARG481      0.2260
    136  O         48.1940   31.4940   76.8730 O.2   481  ARG481     -0.2867
    137  CB        47.5310   32.8820   73.9290 C.3   481  ARG481      0.0307
    138  CG        48.9570   33.3530   73.9630 C.3   481  ARG481      0.0489
    139  CD        49.1370   34.2500   75.1330 C.3   481  ARG481      0.2205
    140  NE        48.0670   35.2320   75.1660 N.pl3 481  ARG481     -0.0865
    141  CZ        47.8280   36.0410   76.1890 C.cat 481  ARG481      0.5346
    142  NH1       48.5800   35.9830   77.2830 N.pl3 481  ARG481      0.1354
    143  NH2       46.8580   36.9350   76.1000 N.pl3 481  ARG481      0.1354
    144  N         49.4990   29.9120   79.0950 N.3   485  SER485     -0.1217
    145  CA        50.2810   30.7620   79.9910 C.3   485  SER485      0.1889
    146  C         49.8960   30.5140   81.4400 C.2   485  SER485      0.2288
    147  O         50.6470   30.8180   82.3640 O.2   485  SER485     -0.2866
    148  CB        50.0440   32.2260   79.6780 C.3   485  SER485      0.2089
    149  OG        50.5410   32.5490   78.3980 O.3   485  SER485     -0.2183
@<TRIPOS>BOND
     1    99   100    1
     2   104   103    1
     3   100   103    1
     4   100   101    1
     5   102   101    2
     6   101   105   am
     7    91    90    2
     8   111   112    1
     9   125   126    1
    10    88    89    1
    11    89    90    1
    12    89    92    1
    13   105   106    1
    14    90    95   am
    15   107   106    1
    16   107   108    2
    17   114   113    2
    18   112   113    1
    19   112   115    1
    20    98    97    2
    21    97    96    1
    22   127   126    1
    23   127   128    2
    24    94    92    1
    25   118   119    2
    26   118   117    1
    27   126   129    1
    28   113   116   am
    29    80    81    1
    30   106   109    1
    31    92    93    1
    32    95    96    1
    33   116   117    1
    34   117   120    1
    35   109   110    1
    36    81    82    1
    37    81    84    1
    38   129   130    1
    39    82    83    2
    40   120   121    1
    41   110    37    1
    42    87    85    1
    43   131   130    1
    44    84    85    1
    45   130   132    1
    46    85    86    1
    47   121   122    1
    48    37    36    1
    49   122   123   ar
    50   122   124   ar
    51    23    21    1
    52    45    47   ar
    53    45    43   ar
    54    22    20    1
    55    47    48   ar
    56    55    54    1
    57    42    43    1
    58    42    39    1
    59    36    33    1
    60    43    44   ar
    61    21    20    1
    62   137   138    1
    63   137   134    1
    64   138   139    1
    65    40    39    1
    66    40    41    2
    67    38    39    1
    68   133   134    1
    69    33    34    1
    70    33    32    1
    71    35    34    2
    72    20    17    1
    73    48    46   ar
    74   134   135    1
    75    54    53    1
    76    54    56    1
    77    44    46   ar
    78    19    18    2
    79    53    50    1
    80   139   140    1
    81   140   141    2
    82    32    26   am
    83    17    18    1
    84    17    16    1
    85     5     6    1
    86     5     2    1
    87    27    26    2
    88    79    78    1
    89    77    78   ar
    90    77    75   ar
    91    26    25    1
    92    78    76   ar
    93    75    73   ar
    94     6     7    1
    95     4     3    2
    96    28    25    1
    97    28    29    1
    98   143   141    1
    99   135   136    2
   100   141   142    1
   101    76    74   ar
   102    73    74   ar
   103    73    72    1
   104    51    50    1
   105    51    52    2
   106     3     2    1
   107    50    49    1
   108    16    10   am
   109     2     1    1
   110    72    69    1
   111    25    24    1
   112    29    30    2
   113    29    31   am
   114     7     1    1
   115    11    10    2
   116    10     9    1
   117    69    70    1
   118    69    68    1
   119    67    65    1
   120    12     9    1
   121    12    13    1
   122    70    71    2
   123   149   148    1
   124    68    59   am
   125     9     8    1
   126    14    13    1
   127   144   145    1
   128    65    64    2
   129    65    66    1
   130    64    63    1
   131    13    15    1
   132   148   145    1
   133    59    58    1
   134    59    60    2
   135    57    58    1
   136   145   146    1
   137    61    58    1
   138    61    62    1
   139    63    62    1
   140   146   147    2
