@<TRIPOS>MOLECULE
tmp/2bxgA01.pdb
 112 103 0 0 0
SMALL
GASTEIGER

@<TRIPOS>ATOM
      1  N         -8.6320  -11.0660   -5.9660 N.3   202  PHE202     -0.1241
      2  CA        -8.0930  -12.2590   -6.5930 C.3   202  PHE202      0.1605
      3  C         -8.2120  -13.6050   -5.8630 C.2   202  PHE202      0.2264
      4  O         -7.9520  -14.6490   -6.4640 O.2   202  PHE202     -0.2867
      5  CB        -6.6390  -11.9670   -6.9580 C.3   202  PHE202      0.0534
      6  CG        -6.4930  -10.7610   -7.8410 C.ar  202  PHE202     -0.0203
      7  CD1       -6.8910  -10.8140   -9.1760 C.ar  202  PHE202     -0.0042
      8  CD2       -6.0460   -9.5480   -7.3210 C.ar  202  PHE202     -0.0042
      9  CE1       -6.8560   -9.6810   -9.9780 C.ar  202  PHE202     -0.0003
     10  CE2       -6.0060   -8.3960   -8.1250 C.ar  202  PHE202     -0.0003
     11  CZ        -6.4150   -8.4680   -9.4540 C.ar  202  PHE202     -0.0000
     12  N         -5.8590  -17.9920   -2.9100 N.3   205  ARG205     -0.1231
     13  CA        -4.8260  -18.7740   -3.5640 C.3   205  ARG205      0.1694
     14  C         -3.6630  -17.8890   -4.0120 C.2   205  ARG205      0.2591
     15  O         -2.5000  -18.2870   -3.9180 O.2   205  ARG205     -0.2718
     16  CB        -5.3920  -19.5380   -4.7530 C.3   205  ARG205      0.0321
     17  CG        -4.3550  -20.4000   -5.4170 C.3   205  ARG205      0.0489
     18  CD        -4.9240  -21.1680   -6.5960 C.3   205  ARG205      0.2205
     19  NE        -3.8420  -21.5640   -7.4990 N.pl3 205  ARG205     -0.0865
     20  CZ        -4.0220  -22.1080   -8.6980 C.cat 205  ARG205      0.5346
     21  NH1       -5.2550  -22.3240   -9.1410 N.pl3 205  ARG205      0.1354
     22  NH2       -2.9790  -22.4230   -9.4550 N.pl3 205  ARG205      0.1354
     23  N         -3.9590  -16.6800   -4.4770 N.am  206  ALA206     -0.1980
     24  CA        -2.9020  -15.7730   -4.9210 C.3   206  ALA206      0.1597
     25  C         -2.1020  -15.1950   -3.7520 C.2   206  ALA206      0.2287
     26  O         -0.8940  -14.9590   -3.8620 O.2   206  ALA206     -0.2864
     27  CB        -3.4980  -14.6400   -5.7380 C.3   206  ALA206      0.0319
     28  N          0.4110  -17.9460   -2.8030 N.3   209  ALA209     -0.1245
     29  CA         1.5470  -18.0750   -3.7120 C.3   209  ALA209      0.1562
     30  C          2.5390  -16.9980   -3.3510 C.2   209  ALA209      0.2260
     31  O          3.7500  -17.2330   -3.3030 O.2   209  ALA209     -0.2867
     32  CB         1.1010  -17.9110   -5.1600 C.3   209  ALA209      0.0290
     33  N         -1.8490  -28.0250   -6.5940 N.3   320  ASP320     -0.1239
     34  CA        -1.4730  -26.8900   -5.7630 C.3   320  ASP320      0.1674
     35  C         -0.2380  -27.1710   -4.9230 C.2   320  ASP320      0.2266
     36  O          0.6200  -26.3050   -4.7650 O.2   320  ASP320     -0.2867
     37  CB        -2.6430  -26.4530   -4.8760 C.3   320  ASP320      0.1410
     38  CG        -3.6380  -25.5560   -5.6220 C.2   320  ASP320      0.3668
     39  OD1       -3.3110  -25.0930   -6.7460 O.co2 320  ASP320     -0.2456
     40  OD2       -4.7440  -25.3020   -5.0810 O.co2 320  ASP320     -0.2456
     41  N          2.7600  -27.2860   -7.3960 N.3   323  LEU323     -0.1231
     42  CA         3.1180  -25.9170   -7.7750 C.3   323  LEU323      0.1693
     43  C          3.6990  -25.2140   -6.5560 C.2   323  LEU323      0.2592
     44  O          4.7160  -24.5290   -6.6510 O.2   323  LEU323     -0.2718
     45  CB         1.8920  -25.1650   -8.2830 C.3   323  LEU323      0.0284
     46  CG         1.4700  -25.5480   -9.6970 C.3   323  LEU323      0.0019
     47  CD1        0.0800  -24.9920  -10.0050 C.3   323  LEU323      0.0001
     48  CD2        2.5200  -25.0440  -10.6680 C.3   323  LEU323      0.0001
     49  N          3.0530  -25.3910   -5.4090 N.am  324  GLY324     -0.1957
     50  CA         3.5660  -24.7920   -4.1900 C.3   324  GLY324      0.1869
     51  C          5.0270  -25.1760   -3.9870 C.2   324  GLY324      0.2309
     52  O          5.8650  -24.3460   -3.6050 O.2   324  GLY324     -0.2863
     53  N          7.4100  -23.4230   -6.6110 N.3   327  LEU327     -0.1245
     54  CA         7.6580  -22.0480   -6.2150 C.3   327  LEU327      0.1561
     55  C          8.6560  -21.9780   -5.0720 C.2   327  LEU327      0.2260
     56  O          9.6110  -21.2060   -5.1130 O.2   327  LEU327     -0.2867
     57  CB         6.3360  -21.3800   -5.8320 C.3   327  LEU327      0.0270
     58  CG         6.2850  -19.8540   -5.7080 C.3   327  LEU327      0.0019
     59  CD1        7.1080  -19.1610   -6.8050 C.3   327  LEU327      0.0001
     60  CD2        4.8170  -19.4430   -5.7610 C.3   327  LEU327      0.0001
     61  N          6.1560  -15.2110   -9.3660 N.3   343  LEU343     -0.1245
     62  CA         4.7850  -15.6850   -9.5710 C.3   343  LEU343      0.1561
     63  C          4.4020  -15.7070  -11.0360 C.2   343  LEU343      0.2260
     64  O          3.5170  -16.4450  -11.4470 O.2   343  LEU343     -0.2867
     65  CB         3.7980  -14.8230   -8.7890 C.3   343  LEU343      0.0270
     66  CG         3.9510  -14.9930   -7.2670 C.3   343  LEU343      0.0019
     67  CD1        3.3810  -13.7910   -6.5150 C.3   343  LEU343      0.0001
     68  CD2        3.2600  -16.2740   -6.8450 C.3   343  LEU343      0.0001
     69  N          6.0050  -18.9610  -12.1620 N.3   346  ALA346     -0.1231
     70  CA         5.1960  -20.0430  -11.6500 C.3   346  ALA346      0.1694
     71  C          3.9570  -20.2140  -12.5000 C.2   346  ALA346      0.2591
     72  O          3.4860  -21.3320  -12.7200 O.2   346  ALA346     -0.2718
     73  CB         4.8010  -19.7690  -10.2230 C.3   346  ALA346      0.0304
     74  N          3.4180  -19.1100  -12.9930 N.am  347  LYS347     -0.1980
     75  CA         2.2050  -19.2060  -13.7860 C.3   347  LYS347      0.1596
     76  C          2.5060  -19.6710  -15.1970 C.2   347  LYS347      0.2287
     77  O          1.6820  -20.2940  -15.8490 O.2   347  LYS347     -0.2864
     78  CB         1.4790  -17.8640  -13.7990 C.3   347  LYS347      0.0298
     79  CG         0.0700  -17.9690  -14.3170 C.3   347  LYS347      0.0038
     80  CD        -0.6900  -16.6640  -14.1770 C.3   347  LYS347      0.0206
     81  CE        -2.1370  -16.8800  -14.6190 C.3   347  LYS347      0.1093
     82  NZ        -2.9370  -15.6240  -14.6920 N.3   347  LYS347     -0.1314
     83  N          2.6170  -23.5030  -14.7570 N.3   350  GLU350     -0.1245
     84  CA         1.2870  -24.0750  -14.6530 C.3   350  GLU350      0.1567
     85  C          0.6060  -24.1650  -16.0190 C.2   350  GLU350      0.2260
     86  O          0.0870  -25.2100  -16.4110 O.2   350  GLU350     -0.2867
     87  CB         0.4300  -23.2300  -13.7190 C.3   350  GLU350      0.0388
     88  CG        -1.0550  -23.5520  -13.7860 C.3   350  GLU350      0.1160
     89  CD        -1.8620  -22.7880  -12.7590 C.2   350  GLU350      0.3649
     90  OE1       -1.5790  -21.5950  -12.5480 O.co2 350  GLU350     -0.2457
     91  OE2       -2.7930  -23.3670  -12.1690 O.co2 350  GLU350     -0.2457
     92  N         -5.3200   -9.4260  -14.4470 N.3   476  SER476     -0.1202
     93  CA        -4.3120  -10.2370  -13.7920 C.3   476  SER476      0.2020
     94  C         -3.5150   -9.3850  -12.8410 C.2   476  SER476      0.2619
     95  O         -2.9310   -8.3800  -13.2380 O.2   476  SER476     -0.2717
     96  CB        -3.3750  -10.8480  -14.8200 C.3   476  SER476      0.2103
     97  OG        -2.0480  -10.8820  -14.3240 O.3   476  SER476     -0.2182
     98  N         -3.4850   -9.7920  -11.5820 N.am  477  LEU477     -0.1965
     99  CA        -2.7570   -9.0600  -10.5640 C.3   477  LEU477      0.1728
    100  C         -1.2720   -8.9580  -10.8960 C.2   477  LEU477      0.2616
    101  O         -0.7050   -7.8680  -10.9790 O.2   477  LEU477     -0.2715
    102  CB        -2.9470   -9.7580   -9.2120 C.3   477  LEU477      0.0311
    103  CG        -2.3330   -9.1200   -7.9570 C.3   477  LEU477      0.0022
    104  CD1       -2.7380   -7.6440   -7.8380 C.3   477  LEU477      0.0001
    105  CD2       -2.8050   -9.8930   -6.7390 C.3   477  LEU477      0.0001
    106  N         -0.6640  -10.1180  -11.0920 N.am  478  VAL478     -0.1977
    107  CA         0.7590  -10.2620  -11.3740 C.3   478  VAL478      0.1596
    108  C          1.2550   -9.5720  -12.6350 C.2   478  VAL478      0.2287
    109  O          2.4430   -9.2640  -12.7600 O.2   478  VAL478     -0.2864
    110  CB         1.1140  -11.7690  -11.4940 C.3   478  VAL478      0.0276
    111  CG1        2.5700  -11.9520  -11.8870 C.3   478  VAL478      0.0022
    112  CG2        0.8130  -12.4720  -10.1790 C.3   478  VAL478      0.0022
@<TRIPOS>BOND
     1    86    85    2
     2    85    84    1
     3    77    76    2
     4    76    75    1
     5    96    97    1
     6    96    93    1
     7    83    84    1
     8    82    81    1
     9    84    87    1
    10    81    80    1
    11    92    93    1
    12    79    80    1
    13    79    78    1
    14    78    75    1
    15    93    94    1
    16    88    87    1
    17    88    89    1
    18    75    74    1
    19    95    94    2
    20    74    71   am
    21    94    98   am
    22   109   108    2
    23    89    90   ar
    24    89    91   ar
    25    72    71    2
    26   108   107    1
    27    71    70    1
    28    69    70    1
    29   111   110    1
    30    70    73    1
    31    98    99    1
    32   110   107    1
    33   110   112    1
    34    64    63    2
    35   107   106    1
    36   106   100   am
    37    63    62    1
    38   101   100    2
    39   100    99    1
    40    48    46    1
    41    99   102    1
    42    47    46    1
    43     9    11   ar
    44     9     7   ar
    45    46    45    1
    46    62    61    1
    47    62    65    1
    48    22    20    1
    49    11    10   ar
    50   102   103    1
    51     7     6   ar
    52    21    20    1
    53    65    66    1
    54    20    19    2
    55    45    42    1
    56    10     8   ar
    57   103   104    1
    58   103   105    1
    59     6     8   ar
    60     6     5    1
    61    42    41    1
    62    42    43    1
    63    19    18    1
    64    66    68    1
    65    66    67    1
    66     5     2    1
    67    59    58    1
    68    39    38   ar
    69    44    43    2
    70    53    54    1
    71    18    17    1
    72    33    34    1
    73     2     1    1
    74     2     3    1
    75    43    49   am
    76     4     3    2
    77    54    57    1
    78    54    55    1
    79    57    58    1
    80    34    35    1
    81    34    37    1
    82    60    58    1
    83    27    24    1
    84    38    40   ar
    85    38    37    1
    86    17    16    1
    87    49    50    1
    88    32    29    1
    89    56    55    2
    90    35    36    2
    91    24    23    1
    92    24    25    1
    93    16    13    1
    94    23    14   am
    95    50    51    1
    96    14    15    2
    97    14    13    1
    98    51    52    2
    99    26    25    2
   100    29    30    1
   101    29    28    1
   102    13    12    1
   103    30    31    2
