@<TRIPOS>MOLECULE
tmp/2bxgA00.pdb
 161 151 0 0 0
SMALL
GASTEIGER

@<TRIPOS>ATOM
      1  N         13.7010   -2.9300  -18.8930 N.3   383  LEU383     -0.1231
      2  CA        12.8490   -1.8080  -18.5480 C.3   383  LEU383      0.1693
      3  C         13.4740   -0.9800  -17.4300 C.2   383  LEU383      0.2591
      4  O         13.5440    0.2430  -17.5270 O.2   383  LEU383     -0.2718
      5  CB        11.4750   -2.3080  -18.1120 C.3   383  LEU383      0.0284
      6  CG        10.4200   -1.2090  -17.9430 C.3   383  LEU383      0.0019
      7  CD1        9.9740   -0.7540  -19.3200 C.3   383  LEU383      0.0001
      8  CD2        9.2300   -1.7170  -17.1520 C.3   383  LEU383      0.0001
      9  N         13.9400   -1.6430  -16.3780 N.am  384  ILE384     -0.1980
     10  CA        14.5440   -0.9320  -15.2520 C.3   384  ILE384      0.1595
     11  C         15.8260   -0.1970  -15.6460 C.2   384  ILE384      0.2287
     12  O         16.0520    0.9420  -15.2330 O.2   384  ILE384     -0.2864
     13  CB        14.8710   -1.8990  -14.0750 C.3   384  ILE384      0.0276
     14  CG1       13.6270   -2.7150  -13.6990 C.3   384  ILE384      0.0022
     15  CG2       15.3600   -1.1160  -12.8720 C.3   384  ILE384      0.0022
     16  CD1       12.4270   -1.8800  -13.2930 C.3   384  ILE384      0.0001
     17  N         14.8150    3.0210  -17.7220 N.3   387  ASN387     -0.1225
     18  CA        14.1830    4.0470  -16.9060 C.3   387  ASN387      0.1785
     19  C         15.0690    4.6080  -15.8110 C.2   387  ASN387      0.2597
     20  O         14.8790    5.7430  -15.3860 O.2   387  ASN387     -0.2718
     21  CB        12.9190    3.4930  -16.2940 C.3   387  ASN387      0.1169
     22  CG        11.8470    3.2700  -17.3220 C.2   387  ASN387      0.2627
     23  OD1       11.0620    4.1830  -17.6200 O.2   387  ASN387     -0.2716
     24  ND2       11.8120    2.0600  -17.8990 N.am  387  ASN387     -0.0877
     25  N         16.0330    3.8270  -15.3410 N.am  388  CYS388     -0.1970
     26  CA        16.9120    4.3260  -14.3070 C.3   388  CYS388      0.1712
     27  C         17.9470    5.2390  -14.9240 C.2   388  CYS388      0.2296
     28  O         18.4010    6.1840  -14.2870 O.2   388  CYS388     -0.2864
     29  CB        17.5950    3.1810  -13.5490 C.3   388  CYS388      0.0983
     30  SG        16.6490    2.5480  -12.1230 S.3   388  CYS388     -0.0798
     31  N         11.7060   13.8210  -14.0010 N.3   399  PHE399     -0.1241
     32  CA        11.3280   12.4310  -14.2710 C.3   399  PHE399      0.1605
     33  C          9.8450   12.2180  -13.9520 C.2   399  PHE399      0.2264
     34  O          9.1650   11.4700  -14.6430 O.2   399  PHE399     -0.2867
     35  CB        12.1950   11.4610  -13.4580 C.3   399  PHE399      0.0534
     36  CG        11.9690   10.0000  -13.7920 C.ar  399  PHE399     -0.0203
     37  CD1       12.4070    9.4700  -15.0050 C.ar  399  PHE399     -0.0042
     38  CD2       11.3280    9.1470  -12.8780 C.ar  399  PHE399     -0.0042
     39  CE1       12.2180    8.1130  -15.3110 C.ar  399  PHE399     -0.0003
     40  CE2       11.1300    7.7860  -13.1710 C.ar  399  PHE399     -0.0003
     41  CZ        11.5770    7.2710  -14.3910 C.ar  399  PHE399     -0.0000
     42  N          6.8550   11.1510  -16.6410 N.3   403  LEU403     -0.1245
     43  CA         5.8320   10.1410  -16.3950 C.3   403  LEU403      0.1561
     44  C          4.4270   10.7040  -16.4610 C.2   403  LEU403      0.2260
     45  O          3.5000    9.9830  -16.8220 O.2   403  LEU403     -0.2867
     46  CB         6.0650    9.4540  -15.0420 C.3   403  LEU403      0.0270
     47  CG         7.3900    8.6750  -14.9300 C.3   403  LEU403      0.0019
     48  CD1        7.5580    8.1290  -13.5180 C.3   403  LEU403      0.0001
     49  CD2        7.4150    7.5530  -15.9500 C.3   403  LEU403      0.0001
     50  N          3.3840   10.9280  -20.1160 N.3   406  ARG406     -0.1231
     51  CA         3.1990    9.5370  -20.5100 C.3   406  ARG406      0.1694
     52  C          1.9080    8.9310  -19.9910 C.2   406  ARG406      0.2592
     53  O          1.1620    8.3050  -20.7370 O.2   406  ARG406     -0.2718
     54  CB         4.3830    8.6970  -20.0360 C.3   406  ARG406      0.0321
     55  CG         4.5020    7.3460  -20.7160 C.3   406  ARG406      0.0489
     56  CD         5.9750    6.9670  -20.8920 C.3   406  ARG406      0.2205
     57  NE         6.5770    6.4450  -19.6610 N.pl3 406  ARG406     -0.0865
     58  CZ         7.8870    6.4140  -19.4160 C.cat 406  ARG406      0.5346
     59  NH1        8.7510    6.8820  -20.3110 N.pl3 406  ARG406      0.1354
     60  NH2        8.3360    5.8960  -18.2780 N.pl3 406  ARG406      0.1354
     61  N          1.6080    9.1050  -18.7190 N.am  407  TYR407     -0.1976
     62  CA         0.3880    8.4950  -18.2560 C.3   407  TYR407      0.1639
     63  C         -0.8810    9.1810  -18.7230 C.2   407  TYR407      0.2290
     64  O         -1.8690    8.5020  -19.0490 O.2   407  TYR407     -0.2864
     65  CB         0.4420    8.3020  -16.7410 C.3   407  TYR407      0.0560
     66  CG         0.9980    6.9300  -16.4450 C.ar  407  TYR407     -0.0198
     67  CD1        2.3540    6.6480  -16.6320 C.ar  407  TYR407     -0.0009
     68  CD2        0.1490    5.8810  -16.1040 C.ar  407  TYR407     -0.0009
     69  CE1        2.8490    5.3500  -16.4940 C.ar  407  TYR407      0.0417
     70  CE2        0.6280    4.5830  -15.9690 C.ar  407  TYR407      0.0417
     71  CZ         1.9810    4.3240  -16.1680 C.ar  407  TYR407      0.1957
     72  OH         2.4530    3.0350  -16.0520 O.3   407  TYR407     -0.2866
     73  N         -1.7980    7.8900  -21.9000 N.3   410  LYS410     -0.1245
     74  CA        -2.3500    6.5390  -21.8700 C.3   410  LYS410      0.1561
     75  C         -3.7700    6.5310  -21.4040 C.2   410  LYS410      0.2260
     76  O         -4.6170    5.9530  -22.0440 O.2   410  LYS410     -0.2867
     77  CB        -1.5610    5.6100  -20.9430 C.3   410  LYS410      0.0271
     78  CG        -0.1590    5.3300  -21.3680 C.3   410  LYS410      0.0035
     79  CD         0.5410    4.5790  -20.2810 C.3   410  LYS410      0.0206
     80  CE         1.9960    4.3920  -20.6210 C.3   410  LYS410      0.1093
     81  NZ         2.4650    3.2200  -19.8670 N.3   410  LYS410     -0.1314
     82  N          5.1730    7.0540   -8.7300 N.3   426  LEU426     -0.1245
     83  CA         5.9380    6.2490   -9.6780 C.3   426  LEU426      0.1561
     84  C          7.3420    6.7980   -9.7660 C.2   426  LEU426      0.2260
     85  O          8.3150    6.0510   -9.7770 O.2   426  LEU426     -0.2867
     86  CB         5.3040    6.2720  -11.0690 C.3   426  LEU426      0.0270
     87  CG         3.9410    5.5840  -11.2200 C.3   426  LEU426      0.0019
     88  CD1        3.4100    5.7980  -12.6420 C.3   426  LEU426      0.0001
     89  CD2        4.0750    4.1040  -10.8940 C.3   426  LEU426      0.0001
     90  N          9.9320    5.9010   -7.2140 N.3   429  VAL429     -0.1231
     91  CA        10.5010    4.5660   -7.2490 C.3   429  VAL429      0.1692
     92  C         11.9130    4.6110   -7.7940 C.2   429  VAL429      0.2592
     93  O         12.6860    3.6810   -7.5860 O.2   429  VAL429     -0.2718
     94  CB         9.7300    3.6190   -8.1620 C.3   429  VAL429      0.0266
     95  CG1       10.1940    2.1850   -7.9040 C.3   429  VAL429      0.0020
     96  CG2        8.2480    3.7750   -7.9410 C.3   429  VAL429      0.0020
     97  N         12.2470    5.6790   -8.5070 N.am  430  GLY430     -0.1957
     98  CA        13.5740    5.7770   -9.0700 C.3   430  GLY430      0.1869
     99  C         14.5580    6.2290   -8.0270 C.2   430  GLY430      0.2309
    100  O         15.7390    5.8990   -8.0900 O.2   430  GLY430     -0.2863
    101  N         14.8160    2.7830   -5.9070 N.3   433  CYS433     -0.1221
    102  CA        15.4690    1.6160   -6.4780 C.3   433  CYS433      0.1808
    103  C         16.6610    1.8040   -7.3970 C.2   433  CYS433      0.2601
    104  O         17.5480    0.9540   -7.4390 O.2   433  CYS433     -0.2717
    105  CB        14.4380    0.7720   -7.2110 C.3   433  CYS433      0.0970
    106  SG        13.0190    0.2130   -6.2110 S.3   433  CYS433     -0.0800
    107  N         16.7040    2.8990   -8.1410 N.am  434  CYS434     -0.1970
    108  CA        17.8100    3.0980   -9.0720 C.3   434  CYS434      0.1712
    109  C         19.1990    3.1340   -8.4510 C.2   434  CYS434      0.2296
    110  O         20.1900    2.8400   -9.1250 O.2   434  CYS434     -0.2864
    111  CB        17.5810    4.3600   -9.9010 C.3   434  CYS434      0.0983
    112  SG        16.1730    4.1940  -11.0410 S.3   434  CYS434     -0.0798
    113  N         12.2480   -2.3260   -7.6730 N.3   445  ALA445     -0.1245
    114  CA        11.3860   -1.6540   -8.6370 C.3   445  ALA445      0.1562
    115  C         10.0670   -2.3490   -8.9250 C.2   445  ALA445      0.2260
    116  O          8.9930   -1.8160   -8.6550 O.2   445  ALA445     -0.2867
    117  CB        12.1390   -1.4640   -9.9420 C.3   445  ALA445      0.0290
    118  N          6.3610   -1.0340   -7.9060 N.3   449  LEU449     -0.1245
    119  CA         5.3920   -0.5970   -8.9150 C.3   449  LEU449      0.1561
    120  C          4.0500   -1.2900   -8.7070 C.2   449  LEU449      0.2260
    121  O          2.9880   -0.7920   -9.0870 O.2   449  LEU449     -0.2867
    122  CB         5.9100   -0.9160  -10.3130 C.3   449  LEU449      0.0270
    123  CG         7.0560    0.0010  -10.7220 C.3   449  LEU449      0.0019
    124  CD1        7.7030   -0.4900  -12.0090 C.3   449  LEU449      0.0001
    125  CD2        6.5080    1.4200  -10.8590 C.3   449  LEU449      0.0001
    126  N          0.8500    0.9980   -8.6380 N.3   453  LEU453     -0.1245
    127  CA        -0.2370    0.7210   -9.5830 C.3   453  LEU453      0.1561
    128  C         -1.5280    0.2420   -8.9200 C.2   453  LEU453      0.2260
    129  O         -2.6170    0.3740   -9.4970 O.2   453  LEU453     -0.2867
    130  CB         0.2000   -0.2890  -10.6610 C.3   453  LEU453      0.0270
    131  CG         1.2480    0.2410  -11.6630 C.3   453  LEU453      0.0019
    132  CD1        1.5010   -0.7990  -12.7510 C.3   453  LEU453      0.0001
    133  CD2        0.7570    1.5690  -12.2790 C.3   453  LEU453      0.0001
    134  N          1.6420   -4.3960  -14.1780 N.3   481  ARG481     -0.1245
    135  CA         2.6990   -3.5280  -14.6630 C.3   481  ARG481      0.1563
    136  C          2.9270   -3.7540  -16.1700 C.2   481  ARG481      0.2260
    137  O          2.9860   -2.8010  -16.9530 O.2   481  ARG481     -0.2867
    138  CB         3.9700   -3.7620  -13.8400 C.3   481  ARG481      0.0307
    139  CG         5.0470   -2.6890  -13.9370 C.3   481  ARG481      0.0489
    140  CD         5.8740   -2.8320  -15.2060 C.3   481  ARG481      0.2205
    141  NE         6.4900   -4.1540  -15.2890 N.pl3 481  ARG481     -0.0865
    142  CZ         7.0550   -4.6620  -16.3830 C.cat 481  ARG481      0.5346
    143  NH1        7.0830   -3.9640  -17.5100 N.pl3 481  ARG481      0.1354
    144  NH2        7.6020   -5.8720  -16.3490 N.pl3 481  ARG481      0.1354
    145  N          0.1030   -2.1600  -18.2600 N.3   484  PHE484     -0.1227
    146  CA         0.1770   -0.7220  -18.3250 C.3   484  PHE484      0.1736
    147  C          1.3150   -0.2480  -19.2320 C.2   484  PHE484      0.2596
    148  O          1.1760    0.7720  -19.9370 O.2   484  PHE484     -0.2718
    149  CB         0.3260   -0.1490  -16.9020 C.3   484  PHE484      0.0547
    150  CG        -0.9860    0.1170  -16.2240 C.ar  484  PHE484     -0.0202
    151  CD1       -1.8520    1.0880  -16.7260 C.ar  484  PHE484     -0.0042
    152  CD2       -1.3790   -0.6100  -15.1170 C.ar  484  PHE484     -0.0042
    153  CE1       -3.0860    1.3300  -16.1420 C.ar  484  PHE484     -0.0003
    154  CE2       -2.6220   -0.3770  -14.5160 C.ar  484  PHE484     -0.0003
    155  CZ        -3.4770    0.5990  -15.0340 C.ar  484  PHE484     -0.0000
    156  N          2.4280   -0.9870  -19.2200 N.am  485  SER485     -0.1952
    157  CA         3.5970   -0.6480  -20.0310 C.3   485  SER485      0.1924
    158  C          3.3400   -0.7670  -21.5220 C.2   485  SER485      0.2314
    159  O          4.0060   -0.1380  -22.3290 O.2   485  SER485     -0.2863
    160  CB         4.7500   -1.5670  -19.7020 C.3   485  SER485      0.2116
    161  OG         5.3400   -1.2280  -18.4820 O.3   485  SER485     -0.2180
@<TRIPOS>BOND
     1   159   158    2
     2    76    75    2
     3    73    74    1
     4    74    75    1
     5    74    77    1
     6   158   157    1
     7    78    77    1
     8    78    79    1
     9    56    55    1
    10    56    57    1
    11    53    52    2
    12    55    54    1
    13    80    79    1
    14    80    81    1
    15    51    50    1
    16    51    54    1
    17    51    52    1
    18    59    58    1
    19   157   160    1
    20   157   156    1
    21    52    61   am
    22   148   147    2
    23   160   161    1
    24    57    58    2
    25    58    60    1
    26     7     6    1
    27   147   156   am
    28   147   146    1
    29    64    63    2
    30     1     2    1
    31    63    62    1
    32    61    62    1
    33     2     5    1
    34     2     3    1
    35   146   145    1
    36   146   149    1
    37    62    65    1
    38     5     6    1
    39     6     8    1
    40    24    22   am
    41    17    18    1
    42    23    22    2
    43     4     3    2
    44   143   142    1
    45     3     9   am
    46    22    21    1
    47   137   136    2
    48    18    21    1
    49    18    19    1
    50   149   150    1
    51    45    44    2
    52    65    66    1
    53   151   150   ar
    54   151   153   ar
    55    42    43    1
    56    67    69   ar
    57    67    66   ar
    58    69    71   ar
    59    44    43    1
    60    66    68   ar
    61    43    46    1
    62   142   144    1
    63   142   141    2
    64     9    10    1
    65   150   152   ar
    66   136   135    1
    67    71    72    1
    68    71    70   ar
    69   153   155   ar
    70    68    70   ar
    71    49    47    1
    72    19    20    2
    73    19    25   am
    74    11    10    1
    75    11    12    2
    76    25    26    1
    77    39    37   ar
    78    39    41   ar
    79   141   140    1
    80    10    13    1
    81   140   139    1
    82   152   154   ar
    83    46    47    1
    84   155   154   ar
    85    37    36   ar
    86    47    48    1
    87    27    26    1
    88    27    28    2
    89   135   134    1
    90   135   138    1
    91    34    33    2
    92    41    40   ar
    93    26    29    1
    94    32    31    1
    95    32    33    1
    96    32    35    1
    97    13    14    1
    98    13    15    1
    99   139   138    1
   100    36    35    1
   101    36    38   ar
   102    14    16    1
   103    29    30    1
   104    40    38   ar
   105   132   131    1
   106    88    87    1
   107   133   131    1
   108    30   112    1
   109   124   123    1
   110   131   130    1
   111    87    86    1
   112    87    89    1
   113    86    83    1
   114   112   111    1
   115   125   123    1
   116   123   122    1
   117   130   127    1
   118   122   119    1
   119   117   114    1
   120   111   108    1
   121    85    84    2
   122    84    83    1
   123    83    82    1
   124   127   128    1
   125   127   126    1
   126   129   128    2
   127   110   109    2
   128   121   120    2
   129   108   109    1
   130   108   107    1
   131    98    97    1
   132    98    99    1
   133   115   116    2
   134   115   114    1
   135   119   120    1
   136   119   118    1
   137   114   113    1
   138    97    92   am
   139    94    96    1
   140    94    95    1
   141    94    91    1
   142   107   103   am
   143   100    99    2
   144    92    93    2
   145    92    91    1
   146   104   103    2
   147   103   102    1
   148    91    90    1
   149   105   102    1
   150   105   106    1
   151   102   101    1
