@<TRIPOS>MOLECULE
tmp/2bxhB01.pdb
 101 95 0 0 0
SMALL
GASTEIGER

@<TRIPOS>ATOM
      1  N         49.1490   29.3320   58.5710 N.3   191  LYS191     -0.1245
      2  CA        48.0460   30.2870   58.5510 C.3   191  LYS191      0.1561
      3  C         46.8150   29.5820   57.9490 C.2   191  LYS191      0.2260
      4  O         45.7180   29.5530   58.5430 O.2   191  LYS191     -0.2867
      5  CB        48.4750   31.4990   57.7270 C.3   191  LYS191      0.0271
      6  CG        47.5640   32.6770   57.9090 C.3   191  LYS191      0.0035
      7  CD        47.8140   33.8010   56.8930 C.3   191  LYS191      0.0206
      8  CE        49.0740   34.5930   57.1890 C.3   191  LYS191      0.1093
      9  NZ        49.2780   35.5890   56.0850 N.3   191  LYS191     -0.1314
     10  N         42.9590   28.3110   59.4600 N.3   195  LYS195     -0.1245
     11  CA        41.6760   28.5890   58.8010 C.3   195  LYS195      0.1561
     12  C         40.8430   27.3370   58.6380 C.2   195  LYS195      0.2260
     13  O         39.6420   27.3560   58.8530 O.2   195  LYS195     -0.2867
     14  CB        41.8630   29.2310   57.4120 C.3   195  LYS195      0.0271
     15  CG        42.2740   30.7060   57.4320 C.3   195  LYS195      0.0035
     16  CD        42.0400   31.3370   56.0680 C.3   195  LYS195      0.0206
     17  CE        42.5060   32.7670   56.0530 C.3   195  LYS195      0.1093
     18  NZ        43.9370   32.8650   56.4150 N.3   195  LYS195     -0.1314
     19  N         35.8860   35.6590   62.6510 N.3   210  TRP210     -0.1241
     20  CA        37.3000   36.0290   62.4670 C.3   210  TRP210      0.1605
     21  C         37.4270   36.9320   61.2070 C.2   210  TRP210      0.2264
     22  O         38.0890   37.9750   61.2050 O.2   210  TRP210     -0.2867
     23  CB        38.1450   34.7420   62.3120 C.3   210  TRP210      0.0550
     24  CG        39.5720   35.0120   62.0970 C.ar  210  TRP210      0.0003
     25  CD1       40.5080   35.2450   63.0480 C.ar  210  TRP210      0.0946
     26  CD2       40.2180   35.2270   60.8330 C.ar  210  TRP210      0.0152
     27  NE1       41.7030   35.6060   62.4630 N.ar  210  TRP210     -0.2442
     28  CE2       41.5500   35.5990   61.1030 C.ar  210  TRP210      0.0810
     29  CE3       39.7980   35.1340   59.4980 C.ar  210  TRP210      0.0012
     30  CZ2       42.4660   35.8940   60.0870 C.ar  210  TRP210      0.0191
     31  CZ3       40.7120   35.4280   58.4890 C.ar  210  TRP210      0.0001
     32  CH2       42.0250   35.7980   58.7910 C.ar  210  TRP210      0.0015
     33  N         38.7540   40.7420   60.9790 N.3   214  ARG214     -0.1245
     34  CA        39.9640   40.9730   60.1980 C.3   214  ARG214      0.1563
     35  C         39.7390   41.9230   59.0200 C.2   214  ARG214      0.2260
     36  O         40.5490   42.8180   58.8010 O.2   214  ARG214     -0.2867
     37  CB        40.5450   39.6440   59.6950 C.3   214  ARG214      0.0307
     38  CG        41.9270   39.8110   59.0890 C.3   214  ARG214      0.0489
     39  CD        42.8890   40.3310   60.1360 C.3   214  ARG214      0.2205
     40  NE        44.1850   40.7660   59.6100 N.pl3 214  ARG214     -0.0865
     41  CZ        44.4240   41.9750   59.1010 C.cat 214  ARG214      0.5346
     42  NH1       43.4470   42.8860   59.0260 N.pl3 214  ARG214      0.1354
     43  NH2       45.6570   42.2980   58.7150 N.pl3 214  ARG214      0.1354
     44  N         41.1120   45.9030   58.2170 N.3   218  ARG218     -0.1245
     45  CA        41.7670   46.1410   56.9400 C.3   218  ARG218      0.1563
     46  C         41.0800   47.1850   56.0590 C.2   218  ARG218      0.2260
     47  O         41.7410   48.0400   55.4680 O.2   218  ARG218     -0.2867
     48  CB        41.8820   44.8070   56.1880 C.3   218  ARG218      0.0307
     49  CG        42.8000   44.8130   54.9810 C.3   218  ARG218      0.0489
     50  CD        43.0180   43.3910   54.4700 C.3   218  ARG218      0.2205
     51  NE        44.0260   42.6730   55.2430 N.pl3 218  ARG218     -0.0865
     52  CZ        44.1980   41.3540   55.2130 C.cat 218  ARG218      0.5346
     53  NH1       43.4260   40.5820   54.4460 N.pl3 218  ARG218      0.1354
     54  NH2       45.1530   40.8040   55.9540 N.pl3 218  ARG218      0.1354
     55  N         34.4990   35.0270   50.9720 N.3   234  LEU234     -0.1245
     56  CA        35.7320   34.5080   51.5450 C.3   234  LEU234      0.1561
     57  C         35.4690   33.1800   52.2600 C.2   234  LEU234      0.2260
     58  O         36.2330   32.2330   52.1150 O.2   234  LEU234     -0.2867
     59  CB        36.3110   35.5420   52.5070 C.3   234  LEU234      0.0270
     60  CG        37.7660   35.4130   52.9410 C.3   234  LEU234      0.0019
     61  CD1       38.6730   35.4500   51.7210 C.3   234  LEU234      0.0001
     62  CD2       38.1080   36.5380   53.8980 C.3   234  LEU234      0.0001
     63  N         37.3930   29.5220   51.2850 N.3   238  HIS238     -0.1241
     64  CA        38.0830   28.7040   52.2640 C.3   238  HIS238      0.1621
     65  C         37.3960   27.4050   52.6100 C.2   238  HIS238      0.2264
     66  O         38.0650   26.3970   52.8390 O.2   238  HIS238     -0.2867
     67  CB        38.3870   29.5500   53.4880 C.3   238  HIS238      0.0745
     68  CG        39.4500   30.5680   53.2300 C.ar  238  HIS238      0.0817
     69  ND1       40.7700   30.2200   53.0160 N.ar  238  HIS238     -0.2268
     70  CD2       39.3800   31.9090   53.0610 C.ar  238  HIS238      0.1154
     71  CE1       41.4660   31.3050   52.7220 C.ar  238  HIS238      0.1986
     72  NE2       40.6450   32.3430   52.7420 N.ar  238  HIS238     -0.2212
     73  N         45.2440   39.7520   49.7000 N.3   287  ALA287     -0.1231
     74  CA        45.2220   39.0460   50.9650 C.3   287  ALA287      0.1694
     75  C         46.1840   39.6720   51.9490 C.2   287  ALA287      0.2592
     76  O         45.9320   39.6730   53.1440 O.2   287  ALA287     -0.2718
     77  CB        45.5830   37.5990   50.7480 C.3   287  ALA287      0.0304
     78  N         47.2750   40.2380   51.4530 N.am  288  GLU288     -0.1966
     79  CA        48.2620   40.8150   52.3450 C.3   288  GLU288      0.1733
     80  C         48.3460   42.3350   52.3300 C.2   288  GLU288      0.2616
     81  O         49.2840   42.9160   52.8890 O.2   288  GLU288     -0.2715
     82  CB        49.6320   40.2090   52.0380 C.3   288  GLU288      0.0429
     83  CG        49.5510   38.6880   52.0660 C.3   288  GLU288      0.1163
     84  CD        49.5050   38.0830   53.4440 C.2   288  GLU288      0.3649
     85  OE1       49.5500   38.8500   54.4080 O.co2 288  GLU288     -0.2457
     86  OE2       49.4240   36.8220   53.5650 O.co2 288  GLU288     -0.2457
     87  N         47.3700   42.9940   51.7140 N.am  289  VAL289     -0.1977
     88  CA        47.4170   44.4540   51.6760 C.3   289  VAL289      0.1596
     89  C         47.2480   45.0430   53.0650 C.2   289  VAL289      0.2287
     90  O         46.4490   44.5520   53.8650 O.2   289  VAL289     -0.2864
     91  CB        46.3270   45.0510   50.7770 C.3   289  VAL289      0.0276
     92  CG1       44.9570   44.6330   51.2790 C.3   289  VAL289      0.0022
     93  CG2       46.4610   46.5660   50.7630 C.3   289  VAL289      0.0022
     94  N         48.2250   37.0950   67.0280 N.3   447  ASP447     -0.1239
     95  CA        47.6150   36.3090   65.9610 C.3   447  ASP447      0.1674
     96  C         48.6100   35.2960   65.4480 C.2   447  ASP447      0.2266
     97  O         48.2420   34.2200   65.0390 O.2   447  ASP447     -0.2867
     98  CB        47.1100   37.2110   64.8410 C.3   447  ASP447      0.1410
     99  CG        45.8610   38.0020   65.2640 C.2   447  ASP447      0.3668
    100  OD1       44.9550   37.3940   65.8710 O.co2 447  ASP447     -0.2456
    101  OD2       45.7980   39.2180   64.9940 O.co2 447  ASP447     -0.2456
@<TRIPOS>BOND
     1    73    74    1
     2    77    74    1
     3    93    91    1
     4    91    92    1
     5    91    88    1
     6    74    75    1
     7    55    56    1
     8    63    64    1
     9    78    75   am
    10    78    79    1
    11    56    57    1
    12    56    59    1
    13    88    87    1
    14    88    89    1
    15    87    80   am
    16    61    60    1
    17    75    76    2
    18    82    83    1
    19    82    79    1
    20    83    84    1
    21    58    57    2
    22    64    65    1
    23    64    67    1
    24    80    79    1
    25    80    81    2
    26    59    60    1
    27    65    66    2
    28    71    72   ar
    29    71    69   ar
    30    72    70   ar
    31    60    62    1
    32    69    68   ar
    33    70    68   ar
    34    89    90    2
    35    68    67    1
    36    84    86   ar
    37    84    85   ar
    38    53    52    1
    39    50    49    1
    40    50    51    1
    41    49    48    1
    42    52    51    2
    43    52    54    1
    44    47    46    2
    45    17    16    1
    46    17    18    1
    47    46    45    1
    48    16    15    1
    49     9     8    1
    50    48    45    1
    51     7     8    1
    52     7     6    1
    53    45    44    1
    54    14    15    1
    55    14    11    1
    56     5     6    1
    57     5     2    1
    58     3     4    2
    59     3     2    1
    60    31    32   ar
    61    31    29   ar
    62     2     1    1
    63    12    11    1
    64    12    13    2
    65    43    41    1
    66    32    30   ar
    67    36    35    2
    68    11    10    1
    69    35    34    1
    70    42    41    1
    71    38    37    1
    72    38    39    1
    73    41    40    2
    74    29    26   ar
    75    40    39    1
    76    37    34    1
    77    30    28   ar
    78    34    33    1
    79    26    28   ar
    80    26    24   ar
    81    28    27   ar
    82    22    21    2
    83    21    20    1
    84    24    23    1
    85    24    25   ar
    86    23    20    1
    87    27    25   ar
    88    20    19    1
    89    98    99    1
    90    98    95    1
    91   101    99   ar
    92    97    96    2
    93    99   100   ar
    94    96    95    1
    95    95    94    1
