@<TRIPOS>MOLECULE
tmp/2bxhB00.pdb
 144 132 0 0 0
SMALL
GASTEIGER

@<TRIPOS>ATOM
      1  N         51.8340   40.7500   78.2290 N.3   383  LEU383     -0.1231
      2  CA        52.4860   39.5460   77.7670 C.3   383  LEU383      0.1693
      3  C         53.5000   39.8650   76.6800 C.2   383  LEU383      0.2591
      4  O         54.6450   39.4270   76.7590 O.2   383  LEU383     -0.2718
      5  CB        51.4750   38.5480   77.2190 C.3   383  LEU383      0.0284
      6  CG        52.1800   37.2800   76.6910 C.3   383  LEU383      0.0019
      7  CD1       52.2390   36.2300   77.7810 C.3   383  LEU383      0.0001
      8  CD2       51.4500   36.7360   75.4840 C.3   383  LEU383      0.0001
      9  N         53.0730   40.6230   75.6710 N.am  384  ILE384     -0.1980
     10  CA        53.9330   40.9940   74.5570 C.3   384  ILE384      0.1595
     11  C         55.0880   41.8920   75.0140 C.2   384  ILE384      0.2287
     12  O         56.2140   41.7650   74.5340 O.2   384  ILE384     -0.2864
     13  CB        53.1560   41.7500   73.4710 C.3   384  ILE384      0.0276
     14  CG1       51.8960   40.9770   73.0730 C.3   384  ILE384      0.0022
     15  CG2       54.0510   41.9960   72.2740 C.3   384  ILE384      0.0022
     16  CD1       52.1290   39.5620   72.7370 C.3   384  ILE384      0.0001
     17  N         57.6200   39.6480   77.1000 N.3   387  ASN387     -0.1240
     18  CA        58.3730   38.7170   76.2810 C.3   387  ASN387      0.1653
     19  C         59.2580   39.3710   75.2370 C.2   387  ASN387      0.2266
     20  O         60.2390   38.7860   74.7950 O.2   387  ASN387     -0.2867
     21  CB        57.4260   37.7280   75.6370 C.3   387  ASN387      0.1155
     22  CG        57.0930   36.5930   76.5620 C.2   387  ASN387      0.2627
     23  OD1       57.8760   35.6650   76.7170 O.2   387  ASN387     -0.2716
     24  ND2       55.9480   36.6710   77.2040 N.am  387  ASN387     -0.0877
     25  N         66.1410   32.9810   73.3680 N.3   399  PHE399     -0.1241
     26  CA        64.7200   33.1570   73.6330 C.3   399  PHE399      0.1605
     27  C         63.9890   31.8340   73.4290 C.2   399  PHE399      0.2264
     28  O         63.1360   31.4570   74.2360 O.2   399  PHE399     -0.2867
     29  CB        64.1340   34.2200   72.7010 C.3   399  PHE399      0.0534
     30  CG        62.7270   34.6070   73.0480 C.ar  399  PHE399     -0.0203
     31  CD1       62.4200   35.0830   74.3280 C.ar  399  PHE399     -0.0042
     32  CD2       61.7040   34.5080   72.1020 C.ar  399  PHE399     -0.0042
     33  CE1       61.1310   35.4570   74.6560 C.ar  399  PHE399     -0.0003
     34  CE2       60.4010   34.8800   72.4250 C.ar  399  PHE399     -0.0003
     35  CZ        60.1150   35.3540   73.7030 C.ar  399  PHE399     -0.0000
     36  N         61.8190   29.5340   76.0190 N.3   403  LEU403     -0.1245
     37  CA        60.4660   29.0800   75.6900 C.3   403  LEU403      0.1561
     38  C         60.3590   27.5630   75.7380 C.2   403  LEU403      0.2260
     39  O         59.2900   27.0150   75.9950 O.2   403  LEU403     -0.2867
     40  CB        60.0370   29.5710   74.2920 C.3   403  LEU403      0.0270
     41  CG        59.8360   31.0950   74.1350 C.3   403  LEU403      0.0019
     42  CD1       59.3230   31.4410   72.7400 C.3   403  LEU403      0.0001
     43  CD2       58.8540   31.5840   75.1750 C.3   403  LEU403      0.0001
     44  N         59.9320   26.8230   79.3160 N.3   406  ARG406     -0.1231
     45  CA        58.6200   27.3080   79.7090 C.3   406  ARG406      0.1694
     46  C         57.5260   26.3290   79.3360 C.2   406  ARG406      0.2592
     47  O         56.7090   25.9430   80.1660 O.2   406  ARG406     -0.2718
     48  CB        58.3430   28.6560   79.0440 C.3   406  ARG406      0.0321
     49  CG        57.0300   29.3030   79.4610 C.3   406  ARG406      0.0489
     50  CD        57.3310   30.7230   79.8720 C.3   406  ARG406      0.2205
     51  NE        57.1690   31.6400   78.7620 N.pl3 406  ARG406     -0.0865
     52  CZ        57.8180   32.7870   78.6380 C.cat 406  ARG406      0.5346
     53  NH1       58.6920   33.1660   79.5550 N.pl3 406  ARG406      0.1354
     54  NH2       57.5780   33.5560   77.5950 N.pl3 406  ARG406      0.1354
     55  N         57.5230   25.9030   78.0820 N.am  407  TYR407     -0.1976
     56  CA        56.4990   24.9940   77.6280 C.3   407  TYR407      0.1639
     57  C         56.5810   23.5220   78.0310 C.2   407  TYR407      0.2290
     58  O         55.5380   22.8590   78.1500 O.2   407  TYR407     -0.2864
     59  CB        56.3470   25.1310   76.1120 C.3   407  TYR407      0.0560
     60  CG        55.3730   26.2400   75.7610 C.ar  407  TYR407     -0.0198
     61  CD1       55.7420   27.5860   75.8630 C.ar  407  TYR407     -0.0009
     62  CD2       54.0660   25.9400   75.3760 C.ar  407  TYR407     -0.0009
     63  CE1       54.8370   28.5930   75.5870 C.ar  407  TYR407      0.0417
     64  CE2       53.1550   26.9330   75.1010 C.ar  407  TYR407      0.0417
     65  CZ        53.5430   28.2520   75.2050 C.ar  407  TYR407      0.1957
     66  OH        52.6290   29.2210   74.9030 O.3   407  TYR407     -0.2866
     67  N         55.0200   23.2660   81.2760 N.3   410  LYS410     -0.1245
     68  CA        53.5590   23.3430   81.2530 C.3   410  LYS410      0.1561
     69  C         52.9340   22.0500   80.8140 C.2   410  LYS410      0.2260
     70  O         51.9570   21.6050   81.3940 O.2   410  LYS410     -0.2867
     71  CB        53.0570   24.4740   80.3100 C.3   410  LYS410      0.0271
     72  CG        53.4300   25.8780   80.7340 C.3   410  LYS410      0.0035
     73  CD        53.8470   26.7120   79.5110 C.3   410  LYS410      0.0206
     74  CE        52.8470   27.7850   79.1400 C.3   410  LYS410      0.1093
     75  NZ        52.5860   28.7450   80.2510 N.3   410  LYS410     -0.1314
     76  N         57.4900   29.5050   68.3590 N.3   426  LEU426     -0.1245
     77  CA        57.0070   30.5190   69.2820 C.3   426  LEU426      0.1561
     78  C         58.0990   31.5510   69.4410 C.2   426  LEU426      0.2260
     79  O         57.8480   32.7350   69.7390 O.2   426  LEU426     -0.2867
     80  CB        56.6840   29.9090   70.6550 C.3   426  LEU426      0.0270
     81  CG        55.4700   28.9930   70.8140 C.3   426  LEU426      0.0019
     82  CD1       55.4210   28.5260   72.2490 C.3   426  LEU426      0.0001
     83  CD2       54.1820   29.7270   70.4450 C.3   426  LEU426      0.0001
     84  N         58.3220   34.3710   66.7190 N.3   429  VAL429     -0.1231
     85  CA        57.3010   35.4070   66.8430 C.3   429  VAL429      0.1692
     86  C         57.9990   36.6430   67.3880 C.2   429  VAL429      0.2592
     87  O         57.6740   37.7620   67.0230 O.2   429  VAL429     -0.2718
     88  CB        56.1270   34.9520   67.7820 C.3   429  VAL429      0.0266
     89  CG1       55.1050   36.0760   67.9550 C.3   429  VAL429      0.0020
     90  CG2       55.4150   33.7320   67.1760 C.3   429  VAL429      0.0020
     91  N         58.9960   36.4390   68.2380 N.am  430  GLY430     -0.1957
     92  CA        59.7290   37.5710   68.7790 C.3   430  GLY430      0.1869
     93  C         60.5310   38.3170   67.7150 C.2   430  GLY430      0.2309
     94  O         60.6810   39.5410   67.7780 O.2   430  GLY430     -0.2863
     95  N         58.0010   40.0620   65.2430 N.3   433  CYS433     -0.1221
     96  CA        57.1720   41.1150   65.8060 C.3   433  CYS433      0.1808
     97  C         57.7050   42.1300   66.7620 C.2   433  CYS433      0.2601
     98  O         57.2720   43.2620   66.7360 O.2   433  CYS433     -0.2717
     99  CB        55.9490   40.5140   66.4880 C.3   433  CYS433      0.0970
    100  SG        54.8830   39.4340   65.5140 S.3   433  CYS433     -0.0800
    101  N         58.6080   41.7530   67.6430 N.am  434  CYS434     -0.1970
    102  CA        59.0570   42.7280   68.6160 C.3   434  CYS434      0.1712
    103  C         59.6930   43.9980   68.0700 C.2   434  CYS434      0.2296
    104  O         59.8560   44.9710   68.8170 O.2   434  CYS434     -0.2864
    105  CB        59.9780   42.0540   69.6220 C.3   434  CYS434      0.0983
    106  SG        59.1300   40.7630   70.5910 S.3   434  CYS434     -0.0798
    107  N         52.0580   39.7850   67.0150 N.3   445  ALA445     -0.1245
    108  CA        52.3180   38.7190   67.9910 C.3   445  ALA445      0.1562
    109  C         51.1980   37.7560   68.3740 C.2   445  ALA445      0.2260
    110  O         51.3390   36.5570   68.1900 O.2   445  ALA445     -0.2867
    111  CB        52.9070   39.3300   69.2630 C.3   445  ALA445      0.0290
    112  N         50.9350   33.9420   67.4100 N.3   449  LEU449     -0.1245
    113  CA        50.9090   32.9150   68.4690 C.3   449  LEU449      0.1561
    114  C         49.7150   31.9850   68.2560 C.2   449  LEU449      0.2260
    115  O         49.7750   30.7800   68.5520 O.2   449  LEU449     -0.2867
    116  CB        50.8000   33.5370   69.8780 C.3   449  LEU449      0.0270
    117  CG        52.0620   34.2580   70.3660 C.3   449  LEU449      0.0019
    118  CD1       51.8300   35.0430   71.6890 C.3   449  LEU449      0.0001
    119  CD2       53.1490   33.2010   70.5250 C.3   449  LEU449      0.0001
    120  N         50.2240   27.9500   67.9830 N.3   453  LEU453     -0.1245
    121  CA        49.5650   27.0800   68.9500 C.3   453  LEU453      0.1561
    122  C         48.6060   26.1570   68.2240 C.2   453  LEU453      0.2260
    123  O         48.3750   25.0030   68.6390 O.2   453  LEU453     -0.2867
    124  CB        48.8690   27.9020   70.0340 C.3   453  LEU453      0.0270
    125  CG        49.8840   28.5650   70.9880 C.3   453  LEU453      0.0019
    126  CD1       49.1950   29.5480   71.9280 C.3   453  LEU453      0.0001
    127  CD2       50.5960   27.4580   71.7970 C.3   453  LEU453      0.0001
    128  N         45.3830   31.0340   73.3520 N.3   481  ARG481     -0.1245
    129  CA        46.5830   31.6700   73.8140 C.3   481  ARG481      0.1563
    130  C         46.5210   31.9520   75.3080 C.2   481  ARG481      0.2260
    131  O         47.4210   31.5800   76.0480 O.2   481  ARG481     -0.2867
    132  CB        46.8160   32.9400   73.0220 C.3   481  ARG481      0.0307
    133  CG        48.2490   33.4440   73.0070 C.3   481  ARG481      0.0489
    134  CD        48.5610   34.1580   74.2740 C.3   481  ARG481      0.2205
    135  NE        47.6870   35.3060   74.4390 N.pl3 481  ARG481     -0.0865
    136  CZ        47.4390   35.9030   75.5980 C.cat 481  ARG481      0.5346
    137  NH1       48.0030   35.4570   76.7280 N.pl3 481  ARG481      0.1354
    138  NH2       46.6140   36.9440   75.6310 N.pl3 481  ARG481      0.1354
    139  N         49.0200   30.3840   78.1840 N.3   485  SER485     -0.1217
    140  CA        49.8010   31.3150   78.9660 C.3   485  SER485      0.1889
    141  C         49.5210   31.1450   80.4480 C.2   485  SER485      0.2288
    142  O         50.3990   31.4090   81.2840 O.2   485  SER485     -0.2866
    143  CB        49.4900   32.7600   78.5760 C.3   485  SER485      0.2089
    144  OG        50.1790   33.1500   77.3900 O.3   485  SER485     -0.2183
@<TRIPOS>BOND
     1    95    96    1
     2   100    99    1
     3    96    99    1
     4    96    97    1
     5    84    85    1
     6    98    97    2
     7    97   101   am
     8    85    86    1
     9    85    88    1
    10   107   108    1
    11    87    86    2
    12    90    88    1
    13    86    91   am
    14   112   113    1
    15   101   102    1
    16    93    94    2
    17    93    92    1
    18    88    89    1
    19   120   121    1
    20   108   109    1
    21   108   111    1
    22   103   102    1
    23   103   104    2
    24   110   109    2
    25   122   123    2
    26   122   121    1
    27    91    92    1
    28   114   113    1
    29   114   115    2
    30    76    77    1
    31   113   116    1
    32   102   105    1
    33   121   124    1
    34    77    78    1
    35    77    80    1
    36    78    79    2
    37   105   106    1
    38   116   117    1
    39   124   125    1
    40   117   119    1
    41   117   118    1
    42    83    81    1
    43    80    81    1
    44    81    82    1
    45   125   127    1
    46   125   126    1
    47    32    34   ar
    48    32    30   ar
    49    15    13    1
    50    34    35   ar
    51    29    30    1
    52    29    26    1
    53    16    14    1
    54    42    41    1
    55   133   132    1
    56   133   134    1
    57   132   129    1
    58    30    31   ar
    59    14    13    1
    60   128   129    1
    61    25    26    1
    62    27    26    1
    63    27    28    2
    64    13    10    1
    65    35    33   ar
    66   129   130    1
    67    41    40    1
    68    41    43    1
    69   134   135    1
    70    40    37    1
    71    31    33   ar
    72   135   136    2
    73    12    11    2
    74    10    11    1
    75    10     9    1
    76    20    19    2
    77    66    65    1
    78    64    65   ar
    79    64    62   ar
    80    65    63   ar
    81    19    18    1
    82   130   131    2
    83    62    60   ar
    84     8     6    1
    85    63    61   ar
    86   136   138    1
    87   136   137    1
    88    21    18    1
    89    21    22    1
    90     9     3   am
    91    37    38    1
    92    37    36    1
    93    38    39    2
    94    60    61   ar
    95    60    59    1
    96    59    56    1
    97    18    17    1
    98    22    23    2
    99    22    24   am
   100     3     4    2
   101     3     2    1
   102     6     5    1
   103     6     7    1
   104     5     2    1
   105   144   143    1
   106    54    52    1
   107    56    57    1
   108    56    55    1
   109     2     1    1
   110    57    58    2
   111    55    46   am
   112   139   140    1
   113   143   140    1
   114    52    51    2
   115    52    53    1
   116    51    50    1
   117   140   141    1
   118    48    49    1
   119    48    45    1
   120    74    73    1
   121    74    75    1
   122    44    45    1
   123    46    45    1
   124    46    47    2
   125    49    50    1
   126    73    72    1
   127    71    72    1
   128    71    68    1
   129   141   142    2
   130    69    68    1
   131    69    70    2
   132    68    67    1
