@<TRIPOS>MOLECULE
tmp/2bxiA06.pdb
 167 158 0 0 0
SMALL
GASTEIGER

@<TRIPOS>ATOM
      1  N         31.5290    2.3970   38.5460 N.3   112  ARG112     -0.1231
      2  CA        30.9510    3.6300   38.0390 C.3   112  ARG112      0.1694
      3  C         31.6580    4.8030   38.7080 C.2   112  ARG112      0.2591
      4  O         32.0840    4.7220   39.8610 O.2   112  ARG112     -0.2718
      5  CB        29.4490    3.6990   38.3400 C.3   112  ARG112      0.0321
      6  CG        29.1030    3.5400   39.8100 C.3   112  ARG112      0.0489
      7  CD        27.6560    3.9460   40.1320 C.3   112  ARG112      0.2205
      8  NE        27.5100    5.3990   40.2140 N.pl3 112  ARG112     -0.0865
      9  CZ        26.5200    6.0220   40.8460 C.cat 112  ARG112      0.5346
     10  NH1       25.5720    5.3210   41.4560 N.pl3 112  ARG112      0.1354
     11  NH2       26.4890    7.3490   40.8850 N.pl3 112  ARG112      0.1354
     12  N         31.7900    5.8930   37.9700 N.am  113  LEU113     -0.1980
     13  CA        32.4250    7.0920   38.4910 C.3   113  LEU113      0.1596
     14  C         31.3520    7.8270   39.2860 C.2   113  LEU113      0.2287
     15  O         30.2760    8.1250   38.7640 O.2   113  LEU113     -0.2864
     16  CB        32.9240    7.9490   37.3250 C.3   113  LEU113      0.0297
     17  CG        34.2900    8.6320   37.4210 C.3   113  LEU113      0.0022
     18  CD1       35.3640    7.6370   37.8590 C.3   113  LEU113      0.0001
     19  CD2       34.6350    9.2180   36.0600 C.3   113  LEU113      0.0001
     20  N         30.0150   11.1120   41.2490 N.3   115  ARG115     -0.1245
     21  CA        30.2050   12.5480   41.3330 C.3   115  ARG115      0.1563
     22  C         30.2260   12.9210   42.8140 C.2   115  ARG115      0.2260
     23  O         29.2830   12.6300   43.5430 O.2   115  ARG115     -0.2867
     24  CB        29.0550   13.2520   40.6130 C.3   115  ARG115      0.0307
     25  CG        29.0630   14.7630   40.6890 C.3   115  ARG115      0.0489
     26  CD        27.8060   15.3270   40.0380 C.3   115  ARG115      0.2205
     27  NE        27.7180   14.9650   38.6250 N.pl3 115  ARG115     -0.0865
     28  CZ        26.7100   15.3010   37.8210 C.cat 115  ARG115      0.5346
     29  NH1       25.6940   16.0150   38.2890 N.pl3 115  ARG115      0.1354
     30  NH2       26.7130   14.9150   36.5500 N.pl3 115  ARG115      0.1354
     31  N         34.5890   18.8830   45.2910 N.3   121  MET121     -0.1245
     32  CA        35.1090   19.0300   43.9290 C.3   121  MET121      0.1570
     33  C         35.8030   20.3760   43.7640 C.2   121  MET121      0.2261
     34  O         36.9550   20.4470   43.3360 O.2   121  MET121     -0.2867
     35  CB        33.9940   18.9200   42.8970 C.3   121  MET121      0.0387
     36  CG        33.5760   17.5020   42.5730 C.3   121  MET121      0.0595
     37  SD        32.2930   17.5170   41.3080 S.3   121  MET121     -0.1393
     38  CE        33.1840   16.7610   39.9550 C.3   121  MET121      0.0692
     39  N         40.5020   13.4600   35.8780 N.3   136  TYR136     -0.1241
     40  CA        39.2880   13.4350   35.0870 C.3   136  TYR136      0.1605
     41  C         39.5630   12.7750   33.7290 C.2   136  TYR136      0.2264
     42  O         38.8800   11.8330   33.3500 O.2   136  TYR136     -0.2867
     43  CB        38.7720   14.8670   34.8860 C.3   136  TYR136      0.0534
     44  CG        37.6260   14.9920   33.9000 C.ar  136  TYR136     -0.0201
     45  CD1       36.3540   14.5280   34.2190 C.ar  136  TYR136     -0.0009
     46  CD2       37.8270   15.5530   32.6370 C.ar  136  TYR136     -0.0009
     47  CE1       35.3010   14.6140   33.3050 C.ar  136  TYR136      0.0417
     48  CE2       36.7860   15.6420   31.7130 C.ar  136  TYR136      0.0417
     49  CZ        35.5200   15.1700   32.0540 C.ar  136  TYR136      0.1957
     50  OH        34.4750   15.2520   31.1540 O.3   136  TYR136     -0.2866
     51  N         38.0210    9.0870   32.4350 N.3   140  ILE140     -0.1245
     52  CA        37.1990    9.0170   31.2440 C.3   140  ILE140      0.1561
     53  C         37.8640    8.1950   30.1540 C.2   140  ILE140      0.2260
     54  O         37.2580    7.2960   29.5930 O.2   140  ILE140     -0.2867
     55  CB        36.8950   10.4150   30.6680 C.3   140  ILE140      0.0252
     56  CG1       36.2010   11.2830   31.7110 C.3   140  ILE140      0.0019
     57  CG2       35.9760   10.2890   29.4820 C.3   140  ILE140      0.0019
     58  CD1       34.9030   10.7000   32.2420 C.3   140  ILE140      0.0001
     59  N         37.7630    4.4980   30.4530 N.3   143  ARG143     -0.1231
     60  CA        36.4330    3.9260   30.3170 C.3   143  ARG143      0.1694
     61  C         35.9230    3.9830   28.8820 C.2   143  ARG143      0.2592
     62  O         34.9300    3.3270   28.5350 O.2   143  ARG143     -0.2718
     63  CB        35.4510    4.6390   31.2490 C.3   143  ARG143      0.0321
     64  CG        35.6940    4.3300   32.7010 C.3   143  ARG143      0.0489
     65  CD        34.6980    5.0070   33.6170 C.3   143  ARG143      0.2205
     66  NE        34.8300    4.5310   34.9920 N.pl3 143  ARG143     -0.0865
     67  CZ        35.9140    4.6900   35.7460 C.cat 143  ARG143      0.5346
     68  NH1       36.9790    5.3200   35.2690 N.pl3 143  ARG143      0.1354
     69  NH2       35.9380    4.2120   36.9820 N.pl3 143  ARG143      0.1354
     70  N         36.6030    4.7550   28.0420 N.am  144  HIS144     -0.1976
     71  CA        36.1940    4.8940   26.6490 C.3   144  HIS144      0.1656
     72  C         37.4420    4.8050   25.7800 C.2   144  HIS144      0.2291
     73  O         37.8380    5.7620   25.1500 O.2   144  HIS144     -0.2864
     74  CB        35.4770    6.2330   26.4790 C.3   144  HIS144      0.0771
     75  CG        34.2980    6.4020   27.3890 C.ar  144  HIS144      0.0820
     76  ND1       33.0710    5.8250   27.1360 N.ar  144  HIS144     -0.2267
     77  CD2       34.1730    7.0410   28.5750 C.ar  144  HIS144      0.1154
     78  CE1       32.2440    6.0990   28.1280 C.ar  144  HIS144      0.1986
     79  NE2       32.8880    6.8340   29.0140 N.ar  144  HIS144     -0.2212
     80  N         37.2620    6.4590   22.3140 N.3   147  PHE147     -0.1241
     81  CA        36.8840    7.8520   22.1520 C.3   147  PHE147      0.1605
     82  C         38.0610    8.5680   21.4980 C.2   147  PHE147      0.2264
     83  O         39.1970    8.4000   21.9300 O.2   147  PHE147     -0.2867
     84  CB        36.5920    8.4690   23.5120 C.3   147  PHE147      0.0534
     85  CG        35.6960    9.6660   23.4550 C.ar  147  PHE147     -0.0203
     86  CD1       34.3210    9.5130   23.3560 C.ar  147  PHE147     -0.0042
     87  CD2       36.2210   10.9520   23.5350 C.ar  147  PHE147     -0.0042
     88  CE1       33.4800   10.6160   23.3450 C.ar  147  PHE147     -0.0003
     89  CE2       35.3860   12.0670   23.5240 C.ar  147  PHE147     -0.0003
     90  CZ        34.0140   11.8970   23.4310 C.ar  147  PHE147     -0.0000
     91  N         38.0950   14.2130   23.3250 N.3   152  LEU152     -0.1245
     92  CA        38.1450   14.0500   24.7650 C.3   152  LEU152      0.1561
     93  C         38.7710   15.2870   25.3970 C.2   152  LEU152      0.2260
     94  O         38.3070   15.7950   26.4190 O.2   152  LEU152     -0.2867
     95  CB        38.9580   12.8030   25.1030 C.3   152  LEU152      0.0270
     96  CG        38.6960   12.1140   26.4370 C.3   152  LEU152      0.0019
     97  CD1       37.2080   11.8280   26.5900 C.3   152  LEU152      0.0001
     98  CD2       39.5000   10.8190   26.4960 C.3   152  LEU152      0.0001
     99  N         36.3870   18.0830   25.5500 N.3   155  PHE155     -0.1241
    100  CA        35.4580   17.9570   26.6630 C.3   155  PHE155      0.1605
    101  C         36.1210   18.3720   27.9650 C.2   155  PHE155      0.2264
    102  O         35.4950   18.9960   28.8190 O.2   155  PHE155     -0.2867
    103  CB        34.9580   16.5240   26.7860 C.3   155  PHE155      0.0534
    104  CG        33.7360   16.2530   25.9800 C.ar  155  PHE155     -0.0203
    105  CD1       32.4980   16.7180   26.4060 C.ar  155  PHE155     -0.0042
    106  CD2       33.8200   15.5640   24.7720 C.ar  155  PHE155     -0.0042
    107  CE1       31.3600   16.5040   25.6430 C.ar  155  PHE155     -0.0003
    108  CE2       32.6940   15.3460   24.0010 C.ar  155  PHE155     -0.0003
    109  CZ        31.4570   15.8170   24.4360 C.ar  155  PHE155     -0.0000
    110  N         35.0250   21.2160   30.8040 N.3   159  TYR159     -0.1241
    111  CA        34.9150   20.6830   32.1420 C.3   159  TYR159      0.1605
    112  C         35.5860   21.6870   33.0870 C.2   159  TYR159      0.2264
    113  O         35.0400   22.0450   34.1390 O.2   159  TYR159     -0.2867
    114  CB        35.6300   19.3340   32.1690 C.3   159  TYR159      0.0534
    115  CG        35.5440   18.6040   33.4710 C.ar  159  TYR159     -0.0201
    116  CD1       36.6710   18.4690   34.2840 C.ar  159  TYR159     -0.0009
    117  CD2       34.3400   18.0280   33.8930 C.ar  159  TYR159     -0.0009
    118  CE1       36.6090   17.7700   35.4940 C.ar  159  TYR159      0.0417
    119  CE2       34.2630   17.3320   35.1000 C.ar  159  TYR159      0.0417
    120  CZ        35.4040   17.2050   35.8940 C.ar  159  TYR159      0.1957
    121  OH        35.3560   16.5100   37.0810 O.3   159  TYR159     -0.2866
    122  N         27.5410   20.1010   34.5650 N.3   180  LEU180     -0.1245
    123  CA        28.1220   18.7750   34.6240 C.3   180  LEU180      0.1561
    124  C         27.1940   17.7630   33.9840 C.2   180  LEU180      0.2260
    125  O         27.6350   16.9440   33.1770 O.2   180  LEU180     -0.2867
    126  CB        28.4240   18.3700   36.0710 C.3   180  LEU180      0.0270
    127  CG        29.6880   18.9710   36.6880 C.3   180  LEU180      0.0019
    128  CD1       29.9740   18.2970   38.0170 C.3   180  LEU180      0.0001
    129  CD2       30.8600   18.7760   35.7480 C.3   180  LEU180      0.0001
    130  N         27.3390   18.0250   30.3210 N.3   183  LEU183     -0.1231
    131  CA        28.6030   17.5330   29.7980 C.3   183  LEU183      0.1693
    132  C         28.5450   16.0250   29.6770 C.2   183  LEU183      0.2591
    133  O         28.9080   15.4570   28.6510 O.2   183  LEU183     -0.2718
    134  CB        29.7550   17.9220   30.7150 C.3   183  LEU183      0.0284
    135  CG        30.4690   19.2370   30.4000 C.3   183  LEU183      0.0019
    136  CD1       31.5120   19.5230   31.4830 C.3   183  LEU183      0.0001
    137  CD2       31.1360   19.1500   29.0270 C.3   183  LEU183      0.0001
    138  N         28.0850   15.3820   30.7390 N.am  184  ARG184     -0.1980
    139  CA        27.9750   13.9400   30.7410 C.3   184  ARG184      0.1597
    140  C         27.1140   13.5100   29.5580 C.2   184  ARG184      0.2287
    141  O         27.5150   12.6750   28.7370 O.2   184  ARG184     -0.2864
    142  CB        27.3390   13.4760   32.0430 C.3   184  ARG184      0.0334
    143  CG        27.0570   12.0000   32.1030 C.3   184  ARG184      0.0492
    144  CD        26.1170   11.7350   33.2320 C.3   184  ARG184      0.2205
    145  NE        24.8530   12.4310   33.0130 N.pl3 184  ARG184     -0.0865
    146  CZ        24.0640   12.8650   33.9900 C.cat 184  ARG184      0.5346
    147  NH1       24.4150   12.6770   35.2580 N.pl3 184  ARG184      0.1354
    148  NH2       22.9290   13.4910   33.6980 N.pl3 184  ARG184      0.1354
    149  N         28.7420   13.9960   26.2850 N.3   187  GLY187     -0.1210
    150  CA        29.8470   13.0690   26.1800 C.3   187  GLY187      0.1956
    151  C         29.3680   11.6810   25.8170 C.2   187  GLY187      0.2611
    152  O         29.8900   11.0430   24.9070 O.2   187  GLY187     -0.2717
    153  N         28.3560   11.2140   26.5330 N.am  188  LYS188     -0.1979
    154  CA        27.8020    9.9010   26.2660 C.3   188  LYS188      0.1596
    155  C         27.2000    9.8490   24.8650 C.2   188  LYS188      0.2287
    156  O         27.3520    8.8490   24.1580 O.2   188  LYS188     -0.2864
    157  CB        26.7700    9.5530   27.3390 C.3   188  LYS188      0.0298
    158  CG        27.4170    9.0350   28.6300 C.3   188  LYS188      0.0038
    159  CD        26.5320    9.2440   29.8600 C.3   188  LYS188      0.0206
    160  CE        25.2030    8.5110   29.7780 C.3   188  LYS188      0.1093
    161  NZ        24.3190    8.8480   30.9380 N.3   188  LYS188     -0.1314
    162  N         30.1050    9.7210   22.3520 N.3   191  SER191     -0.1217
    163  CA        30.6830    8.3860   22.3910 C.3   191  SER191      0.1889
    164  C         29.7600    7.3730   21.6840 C.2   191  SER191      0.2288
    165  O         30.1970    6.6140   20.8220 O.2   191  SER191     -0.2866
    166  CB        30.9040    7.9750   23.8500 C.3   191  SER191      0.2089
    167  OG        31.3980    6.6560   23.9490 O.3   191  SER191     -0.2183
@<TRIPOS>BOND
     1   165   164    2
     2    82    83    2
     3    82    81    1
     4   164   163    1
     5    81    80    1
     6    81    84    1
     7   162   163    1
     8   163   166    1
     9    91    92    1
    10    88    86   ar
    11    88    90   ar
    12    86    85   ar
    13    90    89   ar
    14    85    84    1
    15    85    87   ar
    16    89    87   ar
    17   166   167    1
    18   108   109   ar
    19   108   106   ar
    20   156   155    2
    21   109   107   ar
    22    92    95    1
    23    92    93    1
    24   106   104   ar
    25   155   154    1
    26   152   151    2
    27    95    96    1
    28    73    72    2
    29    93    94    2
    30    99   100    1
    31   107   105   ar
    32    72    71    1
    33   151   150    1
    34   151   153   am
    35   104   105   ar
    36   104   103    1
    37   150   149    1
    38   154   153    1
    39   154   157    1
    40    96    98    1
    41    96    97    1
    42    74    71    1
    43    74    75    1
    44    71    70    1
    45   100   103    1
    46   100   101    1
    47    76    75   ar
    48    76    78   ar
    49   157   158    1
    50    75    77   ar
    51   101   102    2
    52    70    61   am
    53    78    79   ar
    54    62    61    2
    55    77    79   ar
    56   158   159    1
    57   133   132    2
    58   141   140    2
    59    61    60    1
    60   137   135    1
    61    57    55    1
    62   140   139    1
    63    54    53    2
    64   132   131    1
    65   132   138   am
    66   160   159    1
    67   160   161    1
    68   131   130    1
    69   131   134    1
    70    53    52    1
    71    60    59    1
    72    60    63    1
    73   135   134    1
    74   135   136    1
    75    55    52    1
    76    55    56    1
    77   138   139    1
    78   139   142    1
    79   110   111    1
    80    50    49    1
    81    52    51    1
    82    63    64    1
    83    56    58    1
    84    48    49   ar
    85    48    46   ar
    86   142   143    1
    87    49    47   ar
    88   143   144    1
    89   111   114    1
    90   111   112    1
    91   114   115    1
    92    46    44   ar
    93    64    65    1
    94   145   144    1
    95   145   146    2
    96   112   113    2
    97   125   124    2
    98    47    45   ar
    99    42    41    2
   100   115   117   ar
   101   115   116   ar
   102    65    66    1
   103   148   146    1
   104    41    40    1
   105   117   119   ar
   106    44    45   ar
   107    44    43    1
   108   124   123    1
   109   146   147    1
   110   116   118   ar
   111   122   123    1
   112   123   126    1
   113    43    40    1
   114    66    67    2
   115    40    39    1
   116   119   120   ar
   117    68    67    1
   118   118   120   ar
   119    67    69    1
   120   129   127    1
   121   120   121    1
   122    19    17    1
   123   126   127    1
   124    30    28    1
   125   127   128    1
   126    16    17    1
   127    16    13    1
   128    17    18    1
   129    28    29    1
   130    28    27    2
   131    12    13    1
   132    12     3   am
   133     2     5    1
   134     2     1    1
   135     2     3    1
   136     5     6    1
   137    13    14    1
   138    27    26    1
   139     3     4    2
   140    15    14    2
   141     6     7    1
   142    38    37    1
   143    26    25    1
   144     7     8    1
   145     8     9    2
   146    24    25    1
   147    24    21    1
   148     9    11    1
   149     9    10    1
   150    20    21    1
   151    37    36    1
   152    21    22    1
   153    36    35    1
   154    22    23    2
   155    35    32    1
   156    34    33    2
   157    33    32    1
   158    32    31    1
