@<TRIPOS>MOLECULE
tmp/2bxiA05.pdb
 183 172 0 0 0
SMALL
GASTEIGER

@<TRIPOS>ATOM
      1  N         38.8010   14.8050   20.8390 N.3   151  GLU151     -0.1245
      2  CA        37.4400   15.1940   21.2330 C.3   151  GLU151      0.1567
      3  C         37.3840   15.1730   22.7530 C.2   151  GLU151      0.2260
      4  O         36.7160   15.9890   23.3860 O.2   151  GLU151     -0.2867
      5  CB        36.3910   14.2050   20.7100 C.3   151  GLU151      0.0388
      6  CG        36.2930   14.0520   19.1930 C.3   151  GLU151      0.1160
      7  CD        35.7780   15.3040   18.5060 C.2   151  GLU151      0.3649
      8  OE1       35.0320   16.0660   19.1590 O.co2 151  GLU151     -0.2457
      9  OE2       36.1050   15.5190   17.3170 O.co2 151  GLU151     -0.2457
     10  N         27.6370    7.8160   19.3980 N.3   193  LYS193     -0.1231
     11  CA        27.6170    8.0270   17.9570 C.3   193  LYS193      0.1693
     12  C         28.8500    7.4370   17.2990 C.2   193  LYS193      0.2591
     13  O         28.7490    6.7950   16.2580 O.2   193  LYS193     -0.2718
     14  CB        27.5580    9.5080   17.6110 C.3   193  LYS193      0.0285
     15  CG        26.3350   10.2380   18.0750 C.3   193  LYS193      0.0035
     16  CD        26.4010   11.6440   17.5140 C.3   193  LYS193      0.0206
     17  CE        25.3780   12.5630   18.1420 C.3   193  LYS193      0.1093
     18  NZ        25.5520   13.9450   17.6100 N.3   193  LYS193     -0.1314
     19  N         30.0170    7.6750   17.8890 N.am  194  GLN194     -0.1979
     20  CA        31.2570    7.1420   17.3280 C.3   194  GLN194      0.1601
     21  C         31.1720    5.6240   17.1980 C.2   194  GLN194      0.2287
     22  O         31.5760    5.0580   16.1870 O.2   194  GLN194     -0.2864
     23  CB        32.4620    7.5240   18.2030 C.3   194  GLN194      0.0394
     24  CG        33.0670    8.8900   17.8840 C.3   194  GLN194      0.0908
     25  CD        34.2540    9.2540   18.7860 C.2   194  GLN194      0.2608
     26  OE1       34.0770    9.6790   19.9340 O.2   194  GLN194     -0.2717
     27  NE2       35.4680    9.0800   18.2640 N.am  194  GLN194     -0.0878
     28  N         28.6600    4.7560   14.4580 N.3   197  LYS197     -0.1245
     29  CA        29.1990    4.8750   13.1120 C.3   197  LYS197      0.1561
     30  C         30.0890    3.6880   12.7770 C.2   197  LYS197      0.2260
     31  O         30.0120    3.1300   11.6870 O.2   197  LYS197     -0.2867
     32  CB        29.9880    6.1790   12.9540 C.3   197  LYS197      0.0271
     33  CG        29.1240    7.4300   12.9340 C.3   197  LYS197      0.0035
     34  CD        29.9570    8.6880   12.7020 C.3   197  LYS197      0.0206
     35  CE        29.0820    9.9320   12.7790 C.3   197  LYS197      0.1093
     36  NZ        29.8690   11.1940   12.6770 N.3   197  LYS197     -0.1314
     37  N         25.5340    7.4940    3.0090 N.3   212  TRP212     -0.1241
     38  CA        25.1910    8.2990    4.1640 C.3   212  TRP212      0.1605
     39  C         26.0180    9.5950    4.1080 C.2   212  TRP212      0.2264
     40  O         25.5210   10.6870    4.3500 O.2   212  TRP212     -0.2867
     41  CB        25.5440    7.5220    5.4360 C.3   212  TRP212      0.0550
     42  CG        24.9430    8.0810    6.6540 C.ar  212  TRP212      0.0003
     43  CD1       23.7150    7.7890    7.1610 C.ar  212  TRP212      0.0946
     44  CD2       25.4850    9.1190    7.4760 C.ar  212  TRP212      0.0152
     45  NE1       23.4480    8.5890    8.2470 N.ar  212  TRP212     -0.2442
     46  CE2       24.5180    9.4170    8.4630 C.ar  212  TRP212      0.0810
     47  CE3       26.6920    9.8300    7.4730 C.ar  212  TRP212      0.0012
     48  CZ2       24.7170   10.4000    9.4410 C.ar  212  TRP212      0.0191
     49  CZ3       26.8920   10.8110    8.4470 C.ar  212  TRP212      0.0001
     50  CH2       25.9070   11.0860    9.4150 C.ar  212  TRP212      0.0015
     51  N         24.8730   13.6550    3.8520 N.3   216  ARG216     -0.1231
     52  CA        25.2000   14.5850    4.9190 C.3   216  ARG216      0.1694
     53  C         26.1050   15.6940    4.4260 C.2   216  ARG216      0.2591
     54  O         25.8500   16.8540    4.6910 O.2   216  ARG216     -0.2718
     55  CB        25.8610   13.8580    6.1020 C.3   216  ARG216      0.0321
     56  CG        26.0290   14.7400    7.3370 C.3   216  ARG216      0.0489
     57  CD        24.6850   15.1080    7.9700 C.3   216  ARG216      0.2205
     58  NE        24.8120   16.1520    8.9880 N.pl3 216  ARG216     -0.0865
     59  CZ        24.9040   17.4580    8.7240 C.cat 216  ARG216      0.5346
     60  NH1       24.8780   17.8900    7.4700 N.pl3 216  ARG216      0.1354
     61  NH2       25.0270   18.3390    9.7130 N.pl3 216  ARG216      0.1354
     62  N         27.1580   15.3490    3.7000 N.am  217  LEU217     -0.1980
     63  CA        28.0640   16.3800    3.2030 C.3   217  LEU217      0.1596
     64  C         27.4230   17.3160    2.1810 C.2   217  LEU217      0.2287
     65  O         27.8150   18.4710    2.0820 O.2   217  LEU217     -0.2864
     66  CB        29.3270   15.7600    2.5980 C.3   217  LEU217      0.0297
     67  CG        30.3780   15.2780    3.5950 C.3   217  LEU217      0.0022
     68  CD1       31.5780   14.7540    2.8370 C.3   217  LEU217      0.0001
     69  CD2       30.7930   16.4120    4.4940 C.3   217  LEU217      0.0001
     70  N         25.4630   19.9960    3.9590 N.3   220  ARG220     -0.1231
     71  CA        26.3820   20.9370    4.5870 C.3   220  ARG220      0.1694
     72  C         27.0570   21.8730    3.6050 C.2   220  ARG220      0.2592
     73  O         27.1290   23.0780    3.8270 O.2   220  ARG220     -0.2718
     74  CB        27.4760   20.2010    5.3540 C.3   220  ARG220      0.0321
     75  CG        27.1630   19.8900    6.7940 C.3   220  ARG220      0.0489
     76  CD        28.4790   19.6130    7.5370 C.3   220  ARG220      0.2205
     77  NE        28.2990   19.0710    8.8840 N.pl3 220  ARG220     -0.0865
     78  CZ        27.5080   19.6020    9.8100 C.cat 220  ARG220      0.5346
     79  NH1       26.8040   20.7000    9.5480 N.pl3 220  ARG220      0.1354
     80  NH2       27.4200   19.0300   11.0010 N.pl3 220  ARG220      0.1354
     81  N         27.5630   21.2990    2.5250 N.am  221  PHE221     -0.1976
     82  CA        28.2750   22.0580    1.5180 C.3   221  PHE221      0.1639
     83  C         27.5270   22.0370    0.1930 C.2   221  PHE221      0.2290
     84  O         28.0280   21.4940   -0.7940 O.2   221  PHE221     -0.2864
     85  CB        29.6540   21.4510    1.3300 C.3   221  PHE221      0.0560
     86  CG        30.3940   21.2190    2.6150 C.ar  221  PHE221     -0.0200
     87  CD1       30.4350   22.2050    3.6020 C.ar  221  PHE221     -0.0042
     88  CD2       31.1150   20.0380    2.8150 C.ar  221  PHE221     -0.0042
     89  CE1       31.1850   22.0270    4.7660 C.ar  221  PHE221     -0.0003
     90  CE2       31.8730   19.8500    3.9800 C.ar  221  PHE221     -0.0003
     91  CZ        31.9080   20.8480    4.9550 C.ar  221  PHE221     -0.0000
     92  N         35.7810   14.1200   -0.8980 N.3   232  LEU232     -0.1245
     93  CA        35.6210   14.1920    0.5460 C.3   232  LEU232      0.1561
     94  C         35.0100   12.9280    1.1230 C.2   232  LEU232      0.2260
     95  O         35.4860   12.4050    2.1370 O.2   232  LEU232     -0.2867
     96  CB        34.7380   15.3770    0.9180 C.3   232  LEU232      0.0270
     97  CG        35.2360   16.7560    0.5060 C.3   232  LEU232      0.0019
     98  CD1       34.3050   17.8010    1.0840 C.3   232  LEU232      0.0001
     99  CD2       36.6540   16.9710    1.0010 C.3   232  LEU232      0.0001
    100  N         36.8410   10.7320    3.8600 N.3   236  LEU236     -0.1245
    101  CA        36.1570   10.6280    5.1320 C.3   236  LEU236      0.1561
    102  C         35.9280    9.1540    5.4590 C.2   236  LEU236      0.2260
    103  O         35.9490    8.7560    6.6240 O.2   236  LEU236     -0.2867
    104  CB        34.8260   11.3800    5.0720 C.3   236  LEU236      0.0270
    105  CG        34.0430   11.4620    6.3800 C.3   236  LEU236      0.0019
    106  CD1       34.8510   12.2230    7.4150 C.3   236  LEU236      0.0001
    107  CD2       32.7100   12.1520    6.1360 C.3   236  LEU236      0.0001
    108  N         39.1270    7.8200    6.7350 N.3   239  VAL239     -0.1231
    109  CA        39.3040    8.2950    8.1010 C.3   239  VAL239      0.1692
    110  C         38.5700    7.4420    9.1200 C.2   239  VAL239      0.2592
    111  O         39.1770    6.9310   10.0600 O.2   239  VAL239     -0.2718
    112  CB        38.8650    9.7640    8.2400 C.3   239  VAL239      0.0266
    113  CG1       38.7940   10.1580    9.7010 C.3   239  VAL239      0.0020
    114  CG2       39.8560   10.6530    7.5200 C.3   239  VAL239      0.0020
    115  N         37.2670    7.2780    8.9290 N.am  240  HIS240     -0.1976
    116  CA        36.4620    6.4800    9.8440 C.3   240  HIS240      0.1656
    117  C         36.8960    5.0210    9.9190 C.2   240  HIS240      0.2291
    118  O         36.8120    4.4050   10.9710 O.2   240  HIS240     -0.2864
    119  CB        34.9920    6.5870    9.4550 C.3   240  HIS240      0.0771
    120  CG        34.3200    7.7890   10.0300 C.ar  240  HIS240      0.0820
    121  ND1       33.6210    7.7520   11.2160 N.ar  240  HIS240     -0.2267
    122  CD2       34.3020    9.0800    9.6220 C.ar  240  HIS240      0.1154
    123  CE1       33.2010    8.9690   11.5150 C.ar  240  HIS240      0.1986
    124  NE2       33.6030    9.7920   10.5650 N.ar  240  HIS240     -0.2212
    125  N         42.6680   12.7390    9.8940 N.3   255  ARG255     -0.1245
    126  CA        41.7790   13.8550   10.1720 C.3   255  ARG255      0.1563
    127  C         42.4940   15.1860    9.9720 C.2   255  ARG255      0.2260
    128  O         41.9130   16.1510    9.4640 O.2   255  ARG255     -0.2867
    129  CB        41.2300   13.7840   11.6030 C.3   255  ARG255      0.0307
    130  CG        40.2080   12.6890   11.8210 C.3   255  ARG255      0.0489
    131  CD        39.5130   12.7630   13.1790 C.3   255  ARG255      0.2205
    132  NE        38.9190   14.0750   13.4520 N.pl3 255  ARG255     -0.0865
    133  CZ        37.9240   14.2730   14.3090 C.cat 255  ARG255      0.5346
    134  NH1       37.4020   13.2490   14.9660 N.pl3 255  ARG255      0.1354
    135  NH2       37.4590   15.4890   14.5250 N.pl3 255  ARG255      0.1354
    136  N         42.7230   15.7690    6.2150 N.3   258  LEU258     -0.1231
    137  CA        41.4320   16.1390    5.6660 C.3   258  LEU258      0.1693
    138  C         41.0740   17.5850    5.9570 C.2   258  LEU258      0.2591
    139  O         40.5710   18.2930    5.0850 O.2   258  LEU258     -0.2718
    140  CB        40.3430   15.2160    6.2060 C.3   258  LEU258      0.0284
    141  CG        38.9460   15.5100    5.6600 C.3   258  LEU258      0.0019
    142  CD1       38.9680   15.4910    4.1320 C.3   258  LEU258      0.0001
    143  CD2       37.9680   14.4880    6.2010 C.3   258  LEU258      0.0001
    144  N         41.3410   18.0220    7.1810 N.am  259  ALA259     -0.1980
    145  CA        41.0390   19.3850    7.5880 C.3   259  ALA259      0.1597
    146  C         41.8640   20.4140    6.8020 C.2   259  ALA259      0.2287
    147  O         41.3370   21.4300    6.3610 O.2   259  ALA259     -0.2864
    148  CB        41.2700   19.5380    9.0870 C.3   259  ALA259      0.0319
    149  N         40.5960   20.5540    3.2740 N.3   262  ILE262     -0.1245
    150  CA        39.3720   21.3220    3.2690 C.3   262  ILE262      0.1561
    151  C         39.6480   22.8130    3.3960 C.2   262  ILE262      0.2260
    152  O         39.1540   23.6020    2.5990 O.2   262  ILE262     -0.2867
    153  CB        38.4250   20.8440    4.3940 C.3   262  ILE262      0.0252
    154  CG1       37.7950   19.5140    3.9800 C.3   262  ILE262      0.0019
    155  CG2       37.3520   21.8900    4.6810 C.3   262  ILE262      0.0019
    156  CD1       36.9100   18.8870    5.0340 C.3   262  ILE262      0.0001
    157  N         39.4770   19.8180   12.9330 N.3   285  SER285     -0.1217
    158  CA        38.5700   18.7050   12.6670 C.3   285  SER285      0.1889
    159  C         37.2770   18.8410   13.4470 C.2   285  SER285      0.2288
    160  O         36.1870   18.7860   12.8780 O.2   285  SER285     -0.2866
    161  CB        39.2130   17.3710   13.0490 C.3   285  SER285      0.2089
    162  OG        40.2280   16.9960   12.1440 O.3   285  SER285     -0.2183
    163  N         35.1590   21.7690   12.0480 N.3   288  ILE288     -0.1231
    164  CA        34.6210   21.4790   10.7370 C.3   288  ILE288      0.1692
    165  C         33.5060   20.4380   10.7890 C.2   288  ILE288      0.2591
    166  O         32.4930   20.5750   10.1050 O.2   288  ILE288     -0.2718
    167  CB        35.7220   20.9850    9.7940 C.3   288  ILE288      0.0266
    168  CG1       36.7700   22.0840    9.6280 C.3   288  ILE288      0.0019
    169  CG2       35.1180   20.5930    8.4440 C.3   288  ILE288      0.0020
    170  CD1       37.7740   21.8200    8.5450 C.3   288  ILE288      0.0001
    171  N         33.6900   19.4070   11.6080 N.am  289  ALA289     -0.1980
    172  CA        32.6930   18.3510   11.7260 C.3   289  ALA289      0.1597
    173  C         31.3290   18.8750   12.1850 C.2   289  ALA289      0.2287
    174  O         30.2970   18.2900   11.8570 O.2   289  ALA289     -0.2864
    175  CB        33.1870   17.2760   12.6840 C.3   289  ALA289      0.0319
    176  N         19.3230   12.6680   14.6130 N.3   449  ASP449     -0.1239
    177  CA        20.5500   12.5180   15.3530 C.3   449  ASP449      0.1674
    178  C         20.3980   11.9640   16.7620 C.2   449  ASP449      0.2266
    179  O         21.1710   11.1000   17.1700 O.2   449  ASP449     -0.2867
    180  CB        21.3090   13.8370   15.3690 C.3   449  ASP449      0.1410
    181  CG        22.7550   13.6600   14.9530 C.2   449  ASP449      0.3668
    182  OD1       23.6010   13.3410   15.8230 O.co2 449  ASP449     -0.2456
    183  OD2       23.0350   13.8100   13.7430 O.co2 449  ASP449     -0.2456
@<TRIPOS>BOND
     1    92    93    1
     2    84    83    2
     3    83    82    1
     4    97    96    1
     5    97    99    1
     6    97    98    1
     7    93    96    1
     8    93    94    1
     9    94    95    2
    10    85    82    1
    11    85    86    1
    12    82    81    1
    13    65    64    2
    14    64    63    1
    15    81    72   am
    16    66    63    1
    17    66    67    1
    18   152   151    2
    19    86    88   ar
    20    86    87   ar
    21    88    90   ar
    22    68    67    1
    23    37    38    1
    24    63    62    1
    25   150   149    1
    26   150   151    1
    27   150   153    1
    28    67    69    1
    29    87    89   ar
    30    72    73    2
    31    72    71    1
    32    62    53   am
    33    51    52    1
    34   100   101    1
    35    70    71    1
    36   154   153    1
    37   154   156    1
    38    90    91   ar
    39    39    38    1
    40    39    40    2
    41   142   141    1
    42    38    41    1
    43   153   155    1
    44    53    54    2
    45    53    52    1
    46    71    74    1
    47    89    91   ar
    48    52    55    1
    49   104   101    1
    50   104   105    1
    51   139   138    2
    52   101   102    1
    53    74    75    1
    54    41    42    1
    55   102   103    2
    56   141   143    1
    57   141   140    1
    58   137   138    1
    59   137   140    1
    60   137   136    1
    61   138   144   am
    62    55    56    1
    63   107   105    1
    64   147   146    2
    65   105   106    1
    66    42    43   ar
    67    42    44   ar
    68   108   109    1
    69    75    76    1
    70   146   145    1
    71    43    45   ar
    72   144   145    1
    73    56    57    1
    74    60    59    1
    75    47    44   ar
    76    47    49   ar
    77    44    46   ar
    78   114   112    1
    79    76    77    1
    80   145   148    1
    81    57    58    1
    82   109   112    1
    83   109   110    1
    84   112   113    1
    85    45    46   ar
    86   169   167    1
    87    49    50   ar
    88    46    48   ar
    89   170   168    1
    90    59    58    2
    91    59    61    1
    92    77    78    2
    93   115   110   am
    94   115   116    1
    95   110   111    2
    96    50    48   ar
    97   119   116    1
    98   119   120    1
    99   128   127    2
   100    79    78    1
   101   122   120   ar
   102   122   124   ar
   103   168   167    1
   104   167   164    1
   105    78    80    1
   106   116   117    1
   107   125   126    1
   108   117   118    2
   109   127   126    1
   110   120   121   ar
   111   166   165    2
   112   126   129    1
   113   124   123   ar
   114   164   165    1
   115   164   163    1
   116   165   171   am
   117   121   123   ar
   118   129   130    1
   119   171   172    1
   120    31    30    2
   121   172   173    1
   122   172   175    1
   123   130   131    1
   124   174   173    2
   125   162   161    1
   126   158   157    1
   127   158   161    1
   128   158   159    1
   129    36    35    1
   130    34    35    1
   131    34    33    1
   132    30    29    1
   133   160   159    2
   134    33    32    1
   135    32    29    1
   136    29    28    1
   137   131   132    1
   138   132   133    2
   139   183   181   ar
   140   133   135    1
   141   133   134    1
   142   176   177    1
   143   181   180    1
   144   181   182   ar
   145   177   180    1
   146   177   178    1
   147    22    21    2
   148    13    12    2
   149   178   179    2
   150    21    20    1
   151    12    19   am
   152    12    11    1
   153     9     7   ar
   154    20    19    1
   155    20    23    1
   156    16    15    1
   157    16    17    1
   158    18    17    1
   159    14    11    1
   160    14    15    1
   161    24    23    1
   162    24    25    1
   163    11    10    1
   164    27    25   am
   165     7     8   ar
   166     7     6    1
   167    25    26    2
   168     6     5    1
   169     5     2    1
   170     1     2    1
   171     2     3    1
   172     3     4    2
