@<TRIPOS>MOLECULE
tmp/2bxiA03.pdb
 161 153 0 0 0
SMALL
GASTEIGER

@<TRIPOS>ATOM
      1  N          7.6860   16.3340   31.1860 N.3   399  TYR399     -0.1227
      2  CA         7.2640   15.2710   32.0810 C.3   399  TYR399      0.1736
      3  C          5.9420   14.5830   31.7090 C.2   399  TYR399      0.2595
      4  O          5.8770   13.3530   31.6810 O.2   399  TYR399     -0.2718
      5  CB         7.1840   15.8060   33.5130 C.3   399  TYR399      0.0548
      6  CG         6.6240   14.8000   34.4770 C.ar  399  TYR399     -0.0200
      7  CD1        7.3450   13.6540   34.8140 C.ar  399  TYR399     -0.0009
      8  CD2        5.3480   14.9660   35.0170 C.ar  399  TYR399     -0.0009
      9  CE1        6.8070   12.6940   35.6640 C.ar  399  TYR399      0.0417
     10  CE2        4.7990   14.0160   35.8710 C.ar  399  TYR399      0.0417
     11  CZ         5.5350   12.8820   36.1910 C.ar  399  TYR399      0.1957
     12  OH         5.0020   11.9530   37.0520 O.3   399  TYR399     -0.2866
     13  N          4.8890   15.3520   31.4450 N.am  400  LYS400     -0.1980
     14  CA         3.6100   14.7460   31.0870 C.3   400  LYS400      0.1596
     15  C          3.6730   14.1660   29.6800 C.2   400  LYS400      0.2287
     16  O          2.9170   13.2510   29.3380 O.2   400  LYS400     -0.2864
     17  CB         2.4600   15.7590   31.1900 C.3   400  LYS400      0.0298
     18  CG         2.1560   16.1640   32.6190 C.3   400  LYS400      0.0038
     19  CD         0.8200   16.8840   32.7360 C.3   400  LYS400      0.0206
     20  CE         0.8010   18.1630   31.9150 C.3   400  LYS400      0.1093
     21  NZ         1.7680   19.1990   32.4090 N.3   400  LYS400     -0.1314
     22  N          5.0180   10.9110   30.0600 N.3   403  ASN403     -0.1240
     23  CA         4.0020    9.9850   30.5570 C.3   403  ASN403      0.1653
     24  C          3.1650    9.4460   29.4010 C.2   403  ASN403      0.2266
     25  O          2.7110    8.3060   29.4230 O.2   403  ASN403     -0.2867
     26  CB         3.0900   10.6890   31.5600 C.3   403  ASN403      0.1155
     27  CG         3.7420   10.8820   32.9170 C.2   403  ASN403      0.2627
     28  OD1        4.9570   10.7060   33.0800 O.2   403  ASN403     -0.2716
     29  ND2        2.9290   11.2570   33.9080 N.am  403  ASN403     -0.0877
     30  N         -2.5160   -8.8420   39.3100 N.3   500  PHE500     -0.1241
     31  CA        -2.4690   -7.7090   40.2250 C.3   500  PHE500      0.1605
     32  C         -1.5400   -7.9530   41.4040 C.2   500  PHE500      0.2264
     33  O         -1.5560   -9.0250   42.0090 O.2   500  PHE500     -0.2867
     34  CB        -3.8490   -7.3850   40.7770 C.3   500  PHE500      0.0534
     35  CG        -3.8320   -6.3000   41.8150 C.ar  500  PHE500     -0.0203
     36  CD1       -3.8290   -4.9600   41.4390 C.ar  500  PHE500     -0.0042
     37  CD2       -3.7730   -6.6180   43.1710 C.ar  500  PHE500     -0.0042
     38  CE1       -3.7650   -3.9490   42.3990 C.ar  500  PHE500     -0.0003
     39  CE2       -3.7080   -5.6170   44.1390 C.ar  500  PHE500     -0.0003
     40  CZ        -3.7040   -4.2790   43.7540 C.ar  500  PHE500     -0.0000
     41  N          1.4760   -1.1960   44.0960 N.3   505  PHE505     -0.1241
     42  CA         0.7250    0.0490   44.1070 C.3   505  PHE505      0.1605
     43  C          0.4740    0.7030   45.4660 C.2   505  PHE505      0.2264
     44  O         -0.5530    1.3440   45.6780 O.2   505  PHE505     -0.2867
     45  CB        -0.5880   -0.1630   43.3440 C.3   505  PHE505      0.0534
     46  CG        -0.3860   -0.5970   41.9110 C.ar  505  PHE505     -0.0203
     47  CD1        0.1620    0.2750   40.9720 C.ar  505  PHE505     -0.0042
     48  CD2       -0.7060   -1.8860   41.5060 C.ar  505  PHE505     -0.0042
     49  CE1        0.3880   -0.1360   39.6550 C.ar  505  PHE505     -0.0003
     50  CE2       -0.4810   -2.3010   40.1860 C.ar  505  PHE505     -0.0003
     51  CZ         0.0660   -1.4250   39.2660 C.ar  505  PHE505     -0.0000
     52  N          2.2100    3.3310   48.3940 N.3   507  PHE507     -0.1241
     53  CA         3.2520    4.3470   48.5570 C.3   507  PHE507      0.1605
     54  C          3.3490    4.9550   49.9460 C.2   507  PHE507      0.2264
     55  O          2.3370    5.1940   50.6050 O.2   507  PHE507     -0.2867
     56  CB         3.0340    5.4870   47.5630 C.3   507  PHE507      0.0534
     57  CG         2.7210    5.0290   46.1750 C.ar  507  PHE507     -0.0203
     58  CD1        1.5130    4.3930   45.8940 C.ar  507  PHE507     -0.0042
     59  CD2        3.6290    5.2380   45.1420 C.ar  507  PHE507     -0.0042
     60  CE1        1.2120    3.9710   44.6060 C.ar  507  PHE507     -0.0003
     61  CE2        3.3410    4.8210   43.8490 C.ar  507  PHE507     -0.0003
     62  CZ         2.1280    4.1850   43.5780 C.ar  507  PHE507     -0.0000
     63  N          6.8290    7.5260   40.2120 N.3   523  LYS523     -0.1245
     64  CA         5.4710    7.6070   39.6940 C.3   523  LYS523      0.1561
     65  C          5.3610    6.9080   38.3350 C.2   523  LYS523      0.2260
     66  O          4.4110    6.1610   38.0850 O.2   523  LYS523     -0.2867
     67  CB         5.0430    9.0740   39.5650 C.3   523  LYS523      0.0271
     68  CG         4.9100    9.7910   40.8970 C.3   523  LYS523      0.0035
     69  CD         5.1460   11.2920   40.7690 C.3   523  LYS523      0.0206
     70  CE         3.8620   12.0450   40.4900 C.3   523  LYS523      0.1093
     71  NZ         4.0710   13.5210   40.4470 N.3   523  LYS523     -0.1314
     72  N          5.2140    3.1960   38.4130 N.3   526  ALA526     -0.1231
     73  CA         3.8980    2.7070   38.7930 C.3   526  ALA526      0.1694
     74  C          2.9870    2.7620   37.5660 C.2   526  ALA526      0.2591
     75  O          2.1290    1.8960   37.3670 O.2   526  ALA526     -0.2718
     76  CB         3.3270    3.5620   39.9110 C.3   526  ALA526      0.0304
     77  N          3.1920    3.7900   36.7480 N.am  527  LEU527     -0.1980
     78  CA         2.4050    3.9830   35.5400 C.3   527  LEU527      0.1596
     79  C          2.5710    2.8050   34.5810 C.2   527  LEU527      0.2287
     80  O          1.5900    2.1940   34.1710 O.2   527  LEU527     -0.2864
     81  CB         2.8170    5.2900   34.8560 C.3   527  LEU527      0.0297
     82  CG         1.9600    5.7330   33.6690 C.3   527  LEU527      0.0022
     83  CD1        0.5310    5.9540   34.1080 C.3   527  LEU527      0.0001
     84  CD2        2.5230    7.0050   33.0850 C.3   527  LEU527      0.0001
     85  N          0.8880   -0.1320   35.9000 N.3   530  LEU530     -0.1245
     86  CA        -0.5560   -0.0310   35.8250 C.3   530  LEU530      0.1561
     87  C         -1.0010   -0.4470   34.4340 C.2   530  LEU530      0.2260
     88  O         -1.9420   -1.2220   34.2620 O.2   530  LEU530     -0.2867
     89  CB        -0.9990    1.4050   36.0990 C.3   530  LEU530      0.0270
     90  CG        -2.4570    1.7480   35.7670 C.3   530  LEU530      0.0019
     91  CD1       -3.3930    0.6730   36.3140 C.3   530  LEU530      0.0001
     92  CD2       -2.7950    3.1210   36.3460 C.3   530  LEU530      0.0001
     93  N         -7.5530    8.2210   36.5280 N.3   545  VAL545     -0.1231
     94  CA        -6.8030    7.5950   37.6050 C.3   545  VAL545      0.1692
     95  C         -5.6020    8.4520   37.9920 C.2   545  VAL545      0.2591
     96  O         -5.4020    8.7430   39.1650 O.2   545  VAL545     -0.2718
     97  CB        -6.3070    6.1800   37.2020 C.3   545  VAL545      0.0266
     98  CG1       -5.2530    5.6890   38.1960 C.3   545  VAL545      0.0020
     99  CG2       -7.4890    5.2060   37.1560 C.3   545  VAL545      0.0020
    100  N         -4.8120    8.8660   37.0080 N.am  546  MET546     -0.1979
    101  CA        -3.6400    9.6800   37.2910 C.3   546  MET546      0.1605
    102  C         -4.0030   10.9400   38.0520 C.2   546  MET546      0.2287
    103  O         -3.2840   11.3540   38.9530 O.2   546  MET546     -0.2864
    104  CB        -2.9130   10.0470   36.0000 C.3   546  MET546      0.0413
    105  CG        -2.2610    8.8630   35.3170 C.3   546  MET546      0.0598
    106  SD        -1.2310    9.3300   33.9010 S.3   546  MET546     -0.1393
    107  CE        -2.4660    9.7910   32.7030 C.3   546  MET546      0.0692
    108  N         -4.5210   10.2580   41.5520 N.3   549  PHE549     -0.1227
    109  CA        -3.2130   10.0290   42.1260 C.3   549  PHE549      0.1736
    110  C         -2.5610   11.3740   42.4320 C.2   549  PHE549      0.2595
    111  O         -2.0780   11.5970   43.5410 O.2   549  PHE549     -0.2718
    112  CB        -2.3450    9.2310   41.1630 C.3   549  PHE549      0.0547
    113  CG        -1.1120    8.6700   41.8000 C.ar  549  PHE549     -0.0202
    114  CD1       -1.1990    7.5930   42.6730 C.ar  549  PHE549     -0.0042
    115  CD2        0.1300    9.2430   41.5600 C.ar  549  PHE549     -0.0042
    116  CE1       -0.0660    7.0920   43.3030 C.ar  549  PHE549     -0.0003
    117  CE2        1.2690    8.7540   42.1810 C.ar  549  PHE549     -0.0003
    118  CZ         1.1720    7.6730   43.0580 C.ar  549  PHE549     -0.0000
    119  N         -2.5560   12.2640   41.4460 N.am  550  ALA550     -0.1980
    120  CA        -1.9800   13.5910   41.6160 C.3   550  ALA550      0.1597
    121  C         -2.4130   14.1320   42.9750 C.2   550  ALA550      0.2287
    122  O         -1.5850   14.3490   43.8600 O.2   550  ALA550     -0.2864
    123  CB        -2.4590   14.5180   40.4990 C.3   550  ALA550      0.0319
    124  N         -7.9270    4.7410   47.2360 N.3   573  LEU573     -0.1231
    125  CA        -7.5360    4.9490   45.8450 C.3   573  LEU573      0.1693
    126  C         -7.4470    3.6340   45.0720 C.2   573  LEU573      0.2591
    127  O         -8.1630    3.4240   44.0960 O.2   573  LEU573     -0.2718
    128  CB        -6.1820    5.6550   45.7690 C.3   573  LEU573      0.0284
    129  CG        -5.7250    5.9740   44.3430 C.3   573  LEU573      0.0019
    130  CD1       -6.4780    7.2020   43.8380 C.3   573  LEU573      0.0001
    131  CD2       -4.2280    6.2240   44.3170 C.3   573  LEU573      0.0001
    132  N         -6.5540    2.7590   45.5160 N.am  574  VAL574     -0.1980
    133  CA        -6.3480    1.4700   44.8800 C.3   574  VAL574      0.1595
    134  C         -7.6340    0.7110   44.6300 C.2   574  VAL574      0.2287
    135  O         -7.7990    0.1050   43.5750 O.2   574  VAL574     -0.2864
    136  CB        -5.4310    0.5740   45.7340 C.3   574  VAL574      0.0276
    137  CG1       -5.3890   -0.8380   45.1640 C.3   574  VAL574      0.0022
    138  CG2       -4.0430    1.1750   45.7870 C.3   574  VAL574      0.0022
    139  N         -9.9590    2.7130   41.9580 N.3   577  SER577     -0.1202
    140  CA        -9.3480    2.5900   40.6510 C.3   577  SER577      0.2020
    141  C         -9.5950    1.2380   40.0090 C.2   577  SER577      0.2618
    142  O         -9.9080    1.1680   38.8250 O.2   577  SER577     -0.2717
    143  CB        -7.8490    2.8580   40.7450 C.3   577  SER577      0.2103
    144  OG        -7.6070    4.2030   41.1120 O.3   577  SER577     -0.2182
    145  N         -9.4620    0.1620   40.7740 N.am  578  GLN578     -0.1979
    146  CA        -9.6830   -1.1640   40.2080 C.3   578  GLN578      0.1601
    147  C        -11.0810   -1.3120   39.6280 C.2   578  GLN578      0.2287
    148  O        -11.2590   -1.8740   38.5460 O.2   578  GLN578     -0.2864
    149  CB        -9.4710   -2.2400   41.2610 C.3   578  GLN578      0.0394
    150  CG        -8.0740   -2.2910   41.8090 C.3   578  GLN578      0.0908
    151  CD        -7.8690   -3.4830   42.7100 C.2   578  GLN578      0.2608
    152  OE1       -7.8920   -4.6240   42.2550 O.2   578  GLN578     -0.2717
    153  NE2       -7.6770   -3.2270   43.9980 N.am  578  GLN578     -0.0878
    154  N        -11.5580    0.6020   36.4160 N.3   581  LEU581     -0.1245
    155  CA       -10.9690   -0.0880   35.2760 C.3   581  LEU581      0.1561
    156  C        -11.4380   -1.5360   35.1830 C.2   581  LEU581      0.2260
    157  O        -10.9200   -2.3160   34.3880 O.2   581  LEU581     -0.2867
    158  CB        -9.4420   -0.0390   35.3760 C.3   581  LEU581      0.0270
    159  CG        -8.8500    1.3110   35.8060 C.3   581  LEU581      0.0019
    160  CD1       -7.3370    1.2330   35.7970 C.3   581  LEU581      0.0001
    161  CD2       -9.3230    2.4110   34.8810 C.3   581  LEU581      0.0001
@<TRIPOS>BOND
     1    16    15    2
     2    24    25    2
     3    24    23    1
     4    15    14    1
     5    22    23    1
     6    23    26    1
     7    14    17    1
     8    14    13    1
     9     1     2    1
    10    17    18    1
    11    13     3   am
    12    26    27    1
    13     4     3    2
    14     3     2    1
    15    20    21    1
    16    20    19    1
    17     2     5    1
    18    18    19    1
    19   107   106    1
    20    27    28    2
    21    27    29   am
    22    84    82    1
    23     5     6    1
    24    82    83    1
    25    82    81    1
    26   106   105    1
    27    80    79    2
    28    88    87    2
    29   157   156    2
    30    87    86    1
    31     6     7   ar
    32     6     8   ar
    33    79    78    1
    34     7     9   ar
    35    81    78    1
    36   161   159    1
    37     8    10   ar
    38   156   155    1
    39   155   158    1
    40   155   154    1
    41   105   104    1
    42   158   159    1
    43    78    77    1
    44     9    11   ar
    45    90    89    1
    46    90    91    1
    47    90    92    1
    48   160   159    1
    49    86    85    1
    50    86    89    1
    51    10    11   ar
    52   104   101    1
    53    11    12    1
    54    93    94    1
    55    77    74   am
    56   100   101    1
    57   100    95   am
    58    99    97    1
    59    97    94    1
    60    97    98    1
    61   101   102    1
    62    75    74    2
    63    74    73    1
    64    94    95    1
    65    95    96    2
    66   102   103    2
    67    66    65    2
    68    65    64    1
    69    72    73    1
    70   148   147    2
    71    73    76    1
    72   142   141    2
    73    51    49   ar
    74    51    50   ar
    75    30    31    1
    76    67    64    1
    77    67    68    1
    78   147   146    1
    79    49    47   ar
    80    64    63    1
    81   141   140    1
    82   141   145   am
    83    50    48   ar
    84   146   145    1
    85   146   149    1
    86    31    34    1
    87    31    32    1
    88    71    70    1
    89    70    69    1
    90   123   120    1
    91   140   143    1
    92   140   139    1
    93   143   144    1
    94    69    68    1
    95    34    35    1
    96    47    46   ar
    97   112   113    1
    98   112   109    1
    99   149   150    1
   100    32    33    2
   101    36    35   ar
   102    36    38   ar
   103   119   120    1
   104   119   110   am
   105    48    46   ar
   106   108   109    1
   107   115   113   ar
   108   115   117   ar
   109   120   121    1
   110   113   114   ar
   111   150   151    1
   112    35    37   ar
   113    46    45    1
   114   109   110    1
   115   117   118   ar
   116   152   151    2
   117    38    40   ar
   118   110   111    2
   119   114   116   ar
   120   151   153   am
   121   121   122    2
   122   118   116   ar
   123    37    39   ar
   124    45    42    1
   125   135   134    2
   126    62    61   ar
   127    62    60   ar
   128    40    39   ar
   129   130   129    1
   130    61    59   ar
   131    41    42    1
   132   127   126    2
   133    42    43    1
   134   131   129    1
   135   129   128    1
   136    60    58   ar
   137   134   133    1
   138   133   132    1
   139   133   136    1
   140   126   132   am
   141   126   125    1
   142    59    57   ar
   143   137   136    1
   144    43    44    2
   145   136   138    1
   146   128   125    1
   147   125   124    1
   148    58    57   ar
   149    57    56    1
   150    56    53    1
   151    52    53    1
   152    53    54    1
   153    54    55    2
