@<TRIPOS>MOLECULE
tmp/2bxlA06.pdb
 123 114 0 0 0
SMALL
GASTEIGER

@<TRIPOS>ATOM
      1  N         29.0380    4.7770   14.6970 N.3   197  LYS197     -0.1245
      2  CA        29.5430    4.9110   13.3350 C.3   197  LYS197      0.1561
      3  C         30.4420    3.7460   12.9470 C.2   197  LYS197      0.2260
      4  O         30.4240    3.2870   11.8030 O.2   197  LYS197     -0.2867
      5  CB        30.3100    6.2250   13.1700 C.3   197  LYS197      0.0271
      6  CG        29.4360    7.4680   13.2180 C.3   197  LYS197      0.0035
      7  CD        30.2750    8.7230   13.0250 C.3   197  LYS197      0.0206
      8  CE        29.4310    9.9710   13.2100 C.3   197  LYS197      0.1093
      9  NZ        30.2290   11.2140   12.9980 N.3   197  LYS197     -0.1314
     10  N         27.4990   15.3010    3.7350 N.3   217  LEU217     -0.1245
     11  CA        28.4570   16.3070    3.3020 C.3   217  LEU217      0.1561
     12  C         27.8610   17.2260    2.2650 C.2   217  LEU217      0.2260
     13  O         28.3080   18.3580    2.1120 O.2   217  LEU217     -0.2867
     14  CB        29.7340   15.6690    2.7620 C.3   217  LEU217      0.0270
     15  CG        30.7270   15.2780    3.8670 C.3   217  LEU217      0.0019
     16  CD1       32.1150   15.1020    3.2960 C.3   217  LEU217      0.0001
     17  CD2       30.7750   16.3640    4.9050 C.3   217  LEU217      0.0001
     18  N         25.6980   19.8560    4.0300 N.3   220  ARG220     -0.1231
     19  CA        26.6260   20.7450    4.7060 C.3   220  ARG220      0.1694
     20  C         27.4160   21.6510    3.7630 C.2   220  ARG220      0.2592
     21  O         27.7510   22.7900    4.1000 O.2   220  ARG220     -0.2718
     22  CB        27.5840   19.8950    5.5370 C.3   220  ARG220      0.0321
     23  CG        28.3480   20.6120    6.6220 C.3   220  ARG220      0.0489
     24  CD        29.4570   19.7030    7.1600 C.3   220  ARG220      0.2205
     25  NE        28.9580   18.5990    7.9780 N.pl3 220  ARG220     -0.0865
     26  CZ        28.7140   18.6850    9.2820 C.cat 220  ARG220      0.5346
     27  NH1       28.9250   19.8240    9.9230 N.pl3 220  ARG220      0.1354
     28  NH2       28.2550   17.6310    9.9450 N.pl3 220  ARG220      0.1354
     29  N         27.7120   21.1460    2.5780 N.am  221  PHE221     -0.1976
     30  CA        28.4920   21.9070    1.6180 C.3   221  PHE221      0.1639
     31  C         27.7690   22.0240    0.2900 C.2   221  PHE221      0.2290
     32  O         28.2980   21.6270   -0.7440 O.2   221  PHE221     -0.2864
     33  CB        29.8340   21.2030    1.3960 C.3   221  PHE221      0.0560
     34  CG        30.6570   21.0520    2.6380 C.ar  221  PHE221     -0.0200
     35  CD1       31.4400   19.9120    2.8290 C.ar  221  PHE221     -0.0042
     36  CD2       30.6760   22.0530    3.6050 C.ar  221  PHE221     -0.0042
     37  CE1       32.2410   19.7710    3.9720 C.ar  221  PHE221     -0.0003
     38  CE2       31.4680   21.9270    4.7450 C.ar  221  PHE221     -0.0003
     39  CZ        32.2520   20.7820    4.9320 C.ar  221  PHE221     -0.0000
     40  N         36.0750   14.0910   -0.8130 N.3   232  LEU232     -0.1245
     41  CA        35.9580   14.2030    0.6350 C.3   232  LEU232      0.1561
     42  C         35.4650   12.9070    1.2890 C.2   232  LEU232      0.2260
     43  O         36.0200   12.4690    2.3000 O.2   232  LEU232     -0.2867
     44  CB        35.0200   15.3590    0.9890 C.3   232  LEU232      0.0270
     45  CG        35.5490   16.7330    0.5630 C.3   232  LEU232      0.0019
     46  CD1       34.5380   17.7980    0.9360 C.3   232  LEU232      0.0001
     47  CD2       36.8900   17.0120    1.2210 C.3   232  LEU232      0.0001
     48  N         37.1380   10.7410    3.9430 N.3   236  LEU236     -0.1245
     49  CA        36.4610   10.5990    5.2100 C.3   236  LEU236      0.1561
     50  C         36.2510    9.1120    5.5150 C.2   236  LEU236      0.2260
     51  O         36.3970    8.6760    6.6650 O.2   236  LEU236     -0.2867
     52  CB        35.1330   11.3430    5.1700 C.3   236  LEU236      0.0270
     53  CG        34.5210   11.5660    6.5540 C.3   236  LEU236      0.0019
     54  CD1       35.5280   12.2640    7.4440 C.3   236  LEU236      0.0001
     55  CD2       33.2600   12.4120    6.4360 C.3   236  LEU236      0.0001
     56  N         39.2630    7.6390    6.7650 N.3   239  VAL239     -0.1231
     57  CA        39.5420    8.1570    8.0940 C.3   239  VAL239      0.1692
     58  C         38.8870    7.3450    9.1930 C.2   239  VAL239      0.2592
     59  O         39.5700    6.8590   10.0910 O.2   239  VAL239     -0.2718
     60  CB        39.1100    9.6430    8.2110 C.3   239  VAL239      0.0266
     61  CG1       38.8460   10.0010    9.6480 C.3   239  VAL239      0.0020
     62  CG2       40.2070   10.5410    7.6850 C.3   239  VAL239      0.0020
     63  N         37.5680    7.1770    9.1100 N.am  240  HIS240     -0.1976
     64  CA        36.8330    6.4090   10.1190 C.3   240  HIS240      0.1656
     65  C         37.2450    4.9530   10.2170 C.2   240  HIS240      0.2291
     66  O         37.2830    4.3860   11.3140 O.2   240  HIS240     -0.2864
     67  CB        35.3410    6.5200    9.8750 C.3   240  HIS240      0.0771
     68  CG        34.7680    7.8030   10.3970 C.ar  240  HIS240      0.0820
     69  ND1       34.3160    8.8130    9.5750 N.ar  240  HIS240     -0.2267
     70  CD2       34.6490    8.2730   11.6620 C.ar  240  HIS240      0.1154
     71  CE1       33.9420    9.8470   10.3080 C.ar  240  HIS240      0.1986
     72  NE2       34.1340    9.5440   11.5790 N.ar  240  HIS240     -0.2212
     73  N         43.2100   12.5470    9.9320 N.3   255  ARG255     -0.1245
     74  CA        42.3510   13.7030   10.1930 C.3   255  ARG255      0.1563
     75  C         43.1020   15.0190    9.9580 C.2   255  ARG255      0.2260
     76  O         42.5770   15.9540    9.3510 O.2   255  ARG255     -0.2867
     77  CB        41.8240   13.6610   11.6380 C.3   255  ARG255      0.0307
     78  CG        40.6640   12.7010   11.8810 C.3   255  ARG255      0.0489
     79  CD        40.3890   12.5740   13.3710 C.3   255  ARG255      0.2205
     80  NE        39.9660   13.8310   13.9780 N.pl3 255  ARG255     -0.0865
     81  CZ        38.7050   14.1380   14.2750 C.cat 255  ARG255      0.5346
     82  NH1       37.7300   13.2740   14.0230 N.pl3 255  ARG255      0.1354
     83  NH2       38.4170   15.3120   14.8270 N.pl3 255  ARG255      0.1354
     84  N         43.3010   15.5640    6.1480 N.3   258  LEU258     -0.1231
     85  CA        41.9950   15.9670    5.6450 C.3   258  LEU258      0.1693
     86  C         41.5830   17.3750    6.0740 C.2   258  LEU258      0.2591
     87  O         40.9230   18.0880    5.3160 O.2   258  LEU258     -0.2718
     88  CB        40.9310   14.9590    6.0640 C.3   258  LEU258      0.0284
     89  CG        39.5270   15.2290    5.5150 C.3   258  LEU258      0.0019
     90  CD1       39.5630   15.5750    4.0090 C.3   258  LEU258      0.0001
     91  CD2       38.6730   14.0010    5.7710 C.3   258  LEU258      0.0001
     92  N         41.9800   17.7840    7.2730 N.am  259  ALA259     -0.1980
     93  CA        41.6390   19.1150    7.7530 C.3   259  ALA259      0.1597
     94  C         42.4530   20.1820    6.9820 C.2   259  ALA259      0.2287
     95  O         41.9320   21.2410    6.6170 O.2   259  ALA259     -0.2864
     96  CB        41.9080   19.2080    9.2610 C.3   259  ALA259      0.0319
     97  N         40.8470   20.4370    3.2910 N.3   262  ILE262     -0.1245
     98  CA        39.6200   21.2180    3.2800 C.3   262  ILE262      0.1561
     99  C         39.8710   22.7070    3.4760 C.2   262  ILE262      0.2260
    100  O         39.1530   23.5280    2.9160 O.2   262  ILE262     -0.2867
    101  CB        38.6140   20.7210    4.3500 C.3   262  ILE262      0.0252
    102  CG1       38.0730   19.3500    3.9490 C.3   262  ILE262      0.0019
    103  CG2       37.4530   21.7070    4.4830 C.3   262  ILE262      0.0019
    104  CD1       36.9880   18.8240    4.8840 C.3   262  ILE262      0.0001
    105  N         40.0880   20.0870   12.9770 N.3   285  SER285     -0.1217
    106  CA        39.1860   18.9980   12.6080 C.3   285  SER285      0.1889
    107  C         37.9060   18.9250   13.4390 C.2   285  SER285      0.2288
    108  O         36.8280   18.6770   12.9000 O.2   285  SER285     -0.2866
    109  CB        39.9340   17.6590   12.6560 C.3   285  SER285      0.2089
    110  OG        40.8070   17.5970   13.7690 O.3   285  SER285     -0.2183
    111  N         35.6090   21.7070   12.2040 N.3   288  ILE288     -0.1231
    112  CA        35.0840   21.3970   10.8870 C.3   288  ILE288      0.1692
    113  C         33.9570   20.3700   10.9480 C.2   288  ILE288      0.2591
    114  O         32.9500   20.4870   10.2460 O.2   288  ILE288     -0.2718
    115  CB        36.2020   20.8730    9.9660 C.3   288  ILE288      0.0266
    116  CG1       37.2490   21.9730    9.7650 C.3   288  ILE288      0.0019
    117  CG2       35.6280   20.4630    8.6190 C.3   288  ILE288      0.0020
    118  CD1       38.4050   21.6010    8.8440 C.3   288  ILE288      0.0001
    119  N         34.1380   19.3650   11.7950 N.am  289  ALA289     -0.1980
    120  CA        33.1540   18.3090   11.9530 C.3   289  ALA289      0.1597
    121  C         31.7930   18.8590   12.3730 C.2   289  ALA289      0.2287
    122  O         30.7510   18.3570   11.9470 O.2   289  ALA289     -0.2864
    123  CB        33.6540   17.2970   12.9700 C.3   289  ALA289      0.0319
@<TRIPOS>BOND
     1    40    41    1
     2    32    31    2
     3    31    30    1
     4    45    46    1
     5    45    44    1
     6    45    47    1
     7    41    44    1
     8    41    42    1
     9    42    43    2
    10    33    30    1
    11    33    34    1
    12    30    29    1
    13    13    12    2
    14    12    11    1
    15    29    20   am
    16    34    35   ar
    17    34    36   ar
    18    14    11    1
    19    14    15    1
    20    35    37   ar
    21   100    99    2
    22    98    97    1
    23    98    99    1
    24    98   101    1
    25    16    15    1
    26    11    10    1
    27    36    38   ar
    28    20    21    2
    29    20    19    1
    30    15    17    1
    31    48    49    1
    32   102   101    1
    33   102   104    1
    34    37    39   ar
    35    90    89    1
    36    18    19    1
    37   101   103    1
    38    19    22    1
    39    38    39   ar
    40    52    49    1
    41    52    53    1
    42    49    50    1
    43    87    86    2
    44    89    91    1
    45    89    88    1
    46    50    51    2
    47    22    23    1
    48    85    88    1
    49    85    86    1
    50    85    84    1
    51    86    92   am
    52    55    53    1
    53    53    54    1
    54    95    94    2
    55    23    24    1
    56    56    57    1
    57    94    93    1
    58    24    25    1
    59    92    93    1
    60    62    60    1
    61    93    96    1
    62    25    26    2
    63    57    60    1
    64    57    58    1
    65    60    61    1
    66   117   115    1
    67   118   116    1
    68    63    58   am
    69    63    64    1
    70    58    59    2
    71    26    27    1
    72    26    28    1
    73    76    75    2
    74    69    71   ar
    75    69    68   ar
    76   116   115    1
    77    67    64    1
    78    67    68    1
    79    73    74    1
    80    75    74    1
    81   115   112    1
    82    64    65    1
    83    74    77    1
    84    65    66    2
    85   114   113    2
    86    71    72   ar
    87    68    70   ar
    88   112   113    1
    89   112   111    1
    90   113   119   am
    91    72    70   ar
    92    77    78    1
    93   119   120    1
    94     4     3    2
    95    78    79    1
    96   122   121    2
    97   120   121    1
    98   120   123    1
    99   106   109    1
   100   106   105    1
   101   106   107    1
   102   109   110    1
   103   108   107    2
   104     3     2    1
   105     9     8    1
   106     7     8    1
   107     7     6    1
   108     5     6    1
   109     5     2    1
   110     2     1    1
   111    79    80    1
   112    80    81    2
   113    82    81    1
   114    81    83    1
