@<TRIPOS>MOLECULE
tmp/2bxnA06.pdb
 237 224 0 0 0
SMALL
GASTEIGER

@<TRIPOS>ATOM
      1  N         27.3270    7.5320   19.6290 N.3   193  LYS193     -0.1245
      2  CA        27.4280    7.8070   18.2060 C.3   193  LYS193      0.1561
      3  C         28.6430    7.1720   17.5580 C.2   193  LYS193      0.2260
      4  O         28.5220    6.5370   16.5170 O.2   193  LYS193     -0.2867
      5  CB        27.4710    9.3060   17.9470 C.3   193  LYS193      0.0271
      6  CG        26.1690   10.0230   18.1290 C.3   193  LYS193      0.0035
      7  CD        26.3260   11.4150   17.5910 C.3   193  LYS193      0.0206
      8  CE        25.0690   12.2110   17.7220 C.3   193  LYS193      0.1093
      9  NZ        25.3160   13.5480   17.1350 N.3   193  LYS193     -0.1314
     10  N         28.0970    3.5210   17.2910 N.3   196  LEU196     -0.1231
     11  CA        27.0310    3.2920   16.3260 C.3   196  LEU196      0.1693
     12  C         27.4950    3.3460   14.8780 C.2   196  LEU196      0.2591
     13  O         27.1470    2.4820   14.0750 O.2   196  LEU196     -0.2718
     14  CB        25.9210    4.3220   16.5220 C.3   196  LEU196      0.0284
     15  CG        24.8410    4.4100   15.4380 C.3   196  LEU196      0.0019
     16  CD1       24.0290    3.1410   15.4140 C.3   196  LEU196      0.0001
     17  CD2       23.9010    5.5560   15.7280 C.3   196  LEU196      0.0001
     18  N         28.2720    4.3750   14.5540 N.am  197  LYS197     -0.1980
     19  CA        28.7950    4.5850   13.2060 C.3   197  LYS197      0.1596
     20  C         29.7750    3.5010   12.7760 C.2   197  LYS197      0.2287
     21  O         29.8480    3.1340   11.6080 O.2   197  LYS197     -0.2864
     22  CB        29.4800    5.9370   13.1420 C.3   197  LYS197      0.0298
     23  CG        28.5510    7.0740   13.5370 C.3   197  LYS197      0.0038
     24  CD        29.3050    8.3520   13.8980 C.3   197  LYS197      0.0206
     25  CE        30.0300    8.9330   12.7040 C.3   197  LYS197      0.1093
     26  NZ        30.3150   10.3830   12.8950 N.3   197  LYS197     -0.1314
     27  N         27.8070    0.2800   12.0930 N.3   200  SER200     -0.1217
     28  CA        27.1700    0.4360   10.7950 C.3   200  SER200      0.1889
     29  C         28.0830    0.0950    9.6380 C.2   200  SER200      0.2288
     30  O         27.6940   -0.6390    8.7330 O.2   200  SER200     -0.2866
     31  CB        26.6770    1.8670   10.6420 C.3   200  SER200      0.2089
     32  OG        25.7300    2.1710   11.6510 O.3   200  SER200     -0.2183
     33  N         25.9120   -3.0120    7.6480 N.3   204  PHE204     -0.1227
     34  CA        25.4700   -2.5040    6.3610 C.3   204  PHE204      0.1736
     35  C         26.4910   -2.3520    5.2460 C.2   204  PHE204      0.2596
     36  O         26.1170   -2.2480    4.0880 O.2   204  PHE204     -0.2718
     37  CB        24.7330   -1.1940    6.5970 C.3   204  PHE204      0.0547
     38  CG        23.7180   -1.2800    7.7030 C.ar  204  PHE204     -0.0202
     39  CD1       23.8740   -0.5370    8.8680 C.ar  204  PHE204     -0.0042
     40  CD2       22.6230   -2.1450    7.5970 C.ar  204  PHE204     -0.0042
     41  CE1       22.9540   -0.6550    9.9220 C.ar  204  PHE204     -0.0003
     42  CE2       21.6960   -2.2730    8.6390 C.ar  204  PHE204     -0.0003
     43  CZ        21.8600   -1.5280    9.8060 C.ar  204  PHE204     -0.0000
     44  N         27.7750   -2.3360    5.5610 N.am  205  GLY205     -0.1957
     45  CA        28.7480   -2.2310    4.4850 C.3   205  GLY205      0.1869
     46  C         29.1140   -0.8430    3.9930 C.2   205  GLY205      0.2309
     47  O         28.4650    0.1470    4.3170 O.2   205  GLY205     -0.2863
     48  N         26.4570    1.6270    1.6960 N.3   208  ALA208     -0.1231
     49  CA        25.4920    2.3350    2.5300 C.3   208  ALA208      0.1694
     50  C         26.1400    3.4790    3.3260 C.2   208  ALA208      0.2592
     51  O         25.5120    4.4960    3.6080 O.2   208  ALA208     -0.2718
     52  CB        24.8090    1.3500    3.4860 C.3   208  ALA208      0.0304
     53  N         27.3960    3.3000    3.6960 N.am  209  PHE209     -0.1976
     54  CA        28.0910    4.3220    4.4310 C.3   209  PHE209      0.1639
     55  C         28.4040    5.4860    3.4840 C.2   209  PHE209      0.2290
     56  O         28.2040    6.6590    3.8140 O.2   209  PHE209     -0.2864
     57  CB        29.3830    3.7680    5.0000 C.3   209  PHE209      0.0560
     58  CG        30.1620    4.7840    5.7440 C.ar  209  PHE209     -0.0200
     59  CD1       29.9340    4.9840    7.0950 C.ar  209  PHE209     -0.0042
     60  CD2       31.0560    5.6160    5.0700 C.ar  209  PHE209     -0.0042
     61  CE1       30.5780    5.9910    7.7670 C.ar  209  PHE209     -0.0003
     62  CE2       31.7090    6.6350    5.7270 C.ar  209  PHE209     -0.0003
     63  CZ        31.4740    6.8290    7.0820 C.ar  209  PHE209     -0.0000
     64  N         25.2300    7.4840    2.9400 N.3   212  TRP212     -0.1227
     65  CA        24.9690    8.3260    4.0920 C.3   212  TRP212      0.1737
     66  C         25.7950    9.6190    4.0390 C.2   212  TRP212      0.2595
     67  O         25.2950   10.7090    4.2830 O.2   212  TRP212     -0.2718
     68  CB        25.3590    7.5660    5.3590 C.3   212  TRP212      0.0564
     69  CG        24.4120    7.7390    6.4720 C.ar  212  TRP212      0.0003
     70  CD1       23.3790    6.9150    6.7960 C.ar  212  TRP212      0.0946
     71  CD2       24.3710    8.8250    7.3990 C.ar  212  TRP212      0.0152
     72  NE1       22.6930    7.4170    7.8770 N.ar  212  TRP212     -0.2442
     73  CE2       23.2840    8.5920    8.2650 C.ar  212  TRP212      0.0810
     74  CE3       25.1500    9.9720    7.5820 C.ar  212  TRP212      0.0012
     75  CZ2       22.9430    9.4710    9.2970 C.ar  212  TRP212      0.0191
     76  CZ3       24.8160   10.8510    8.6080 C.ar  212  TRP212      0.0001
     77  CH2       23.7200   10.5910    9.4570 C.ar  212  TRP212      0.0015
     78  N         27.0770    9.4680    3.7460 N.am  213  ALA213     -0.1980
     79  CA        27.9950   10.5870    3.6900 C.3   213  ALA213      0.1597
     80  C         27.6530   11.5630    2.5630 C.2   213  ALA213      0.2287
     81  O         27.6900   12.7810    2.7480 O.2   213  ALA213     -0.2864
     82  CB        29.4350   10.0620    3.5320 C.3   213  ALA213      0.0319
     83  N         24.8080   13.6210    3.7210 N.3   216  ARG216     -0.1231
     84  CA        25.2370   14.5570    4.7370 C.3   216  ARG216      0.1694
     85  C         26.1560   15.6330    4.2030 C.2   216  ARG216      0.2591
     86  O         25.9270   16.8120    4.4380 O.2   216  ARG216     -0.2718
     87  CB        25.9400   13.8180    5.8770 C.3   216  ARG216      0.0321
     88  CG        25.9720   14.6010    7.1900 C.3   216  ARG216      0.0489
     89  CD        24.6990   14.3740    7.9970 C.3   216  ARG216      0.2205
     90  NE        24.6820   15.1110    9.2620 N.pl3 216  ARG216     -0.0865
     91  CZ        24.0250   14.7120   10.3520 C.cat 216  ARG216      0.5346
     92  NH1       23.3280   13.5730   10.3430 N.pl3 216  ARG216      0.1354
     93  NH2       24.0570   15.4540   11.4550 N.pl3 216  ARG216      0.1354
     94  N         27.2000   15.2350    3.4890 N.am  217  LEU217     -0.1980
     95  CA        28.1360   16.2100    2.9620 C.3   217  LEU217      0.1596
     96  C         27.4820   17.1840    2.0220 C.2   217  LEU217      0.2287
     97  O         27.8890   18.3370    1.9400 O.2   217  LEU217     -0.2864
     98  CB        29.3000   15.5400    2.2290 C.3   217  LEU217      0.0297
     99  CG        30.4200   14.9790    3.1010 C.3   217  LEU217      0.0022
    100  CD1       31.6880   14.9400    2.3060 C.3   217  LEU217      0.0001
    101  CD2       30.6240   15.8510    4.2970 C.3   217  LEU217      0.0001
    102  N         25.4320   19.9290    3.9310 N.3   220  ARG220     -0.1231
    103  CA        26.3570   20.8730    4.5220 C.3   220  ARG220      0.1694
    104  C         27.0970   21.7330    3.5150 C.2   220  ARG220      0.2592
    105  O         27.2310   22.9370    3.7100 O.2   220  ARG220     -0.2718
    106  CB        27.3710   20.1370    5.4060 C.3   220  ARG220      0.0321
    107  CG        27.5150   20.7570    6.7990 C.3   220  ARG220      0.0489
    108  CD        26.6500   20.0380    7.8390 C.3   220  ARG220      0.2205
    109  NE        25.4280   19.4680    7.2680 N.pl3 220  ARG220     -0.0865
    110  CZ        24.5850   18.6790    7.9330 C.cat 220  ARG220      0.5346
    111  NH1       24.8260   18.3620    9.1990 N.pl3 220  ARG220      0.1354
    112  NH2       23.5040   18.2010    7.3270 N.pl3 220  ARG220      0.1354
    113  N         27.5840   21.1230    2.4450 N.am  221  PHE221     -0.1976
    114  CA        28.3140   21.8670    1.4310 C.3   221  PHE221      0.1639
    115  C         27.5420   21.9000    0.1250 C.2   221  PHE221      0.2290
    116  O         28.0270   21.4230   -0.8870 O.2   221  PHE221     -0.2864
    117  CB        29.6790   21.2260    1.1880 C.3   221  PHE221      0.0560
    118  CG        30.4580   20.9610    2.4420 C.ar  221  PHE221     -0.0200
    119  CD1       30.4660   21.8900    3.4860 C.ar  221  PHE221     -0.0042
    120  CD2       31.2140   19.7940    2.5710 C.ar  221  PHE221     -0.0042
    121  CE1       31.2160   21.6580    4.6340 C.ar  221  PHE221     -0.0003
    122  CE2       31.9660   19.5540    3.7150 C.ar  221  PHE221     -0.0003
    123  CZ        31.9700   20.4840    4.7480 C.ar  221  PHE221     -0.0000
    124  N         36.7050   10.4010    3.7390 N.3   236  LEU236     -0.1245
    125  CA        35.9600   10.2850    4.9780 C.3   236  LEU236      0.1561
    126  C         35.7730    8.8100    5.3250 C.2   236  LEU236      0.2260
    127  O         35.8470    8.4150    6.4900 O.2   236  LEU236     -0.2867
    128  CB        34.5950   10.9390    4.8240 C.3   236  LEU236      0.0270
    129  CG        33.8390   11.0380    6.1360 C.3   236  LEU236      0.0019
    130  CD1       34.4460   12.1690    6.9440 C.3   236  LEU236      0.0001
    131  CD2       32.3730   11.2900    5.8900 C.3   236  LEU236      0.0001
    132  N         38.9260    7.4090    6.5350 N.3   239  VAL239     -0.1231
    133  CA        39.1280    7.9560    7.8620 C.3   239  VAL239      0.1692
    134  C         38.3910    7.1840    8.9540 C.2   239  VAL239      0.2592
    135  O         39.0020    6.8210    9.9630 O.2   239  VAL239     -0.2718
    136  CB        38.7290    9.4560    7.9090 C.3   239  VAL239      0.0266
    137  CG1       38.5690    9.9110    9.3320 C.3   239  VAL239      0.0020
    138  CG2       39.7940   10.2960    7.2210 C.3   239  VAL239      0.0020
    139  N         37.0950    6.9240    8.7690 N.am  240  HIS240     -0.1976
    140  CA        36.3370    6.1900    9.7840 C.3   240  HIS240      0.1656
    141  C         36.6930    4.7090    9.8800 C.2   240  HIS240      0.2291
    142  O         36.6570    4.1270   10.9630 O.2   240  HIS240     -0.2864
    143  CB        34.8320    6.3450    9.5570 C.3   240  HIS240      0.0771
    144  CG        34.3130    7.7030    9.9120 C.ar  240  HIS240      0.0820
    145  ND1       33.0900    7.9000   10.5140 N.ar  240  HIS240     -0.2267
    146  CD2       34.8650    8.9320    9.7680 C.ar  240  HIS240      0.1154
    147  CE1       32.9120    9.1920   10.7300 C.ar  240  HIS240      0.1986
    148  NE2       33.9750    9.8390   10.2860 N.ar  240  HIS240     -0.2212
    149  N         42.6820   12.2250    9.9310 N.3   255  ARG255     -0.1245
    150  CA        41.7960   13.3370   10.2310 C.3   255  ARG255      0.1563
    151  C         42.4230   14.6940    9.9810 C.2   255  ARG255      0.2260
    152  O         41.7820   15.5850    9.4490 O.2   255  ARG255     -0.2867
    153  CB        41.2950   13.2530   11.6760 C.3   255  ARG255      0.0307
    154  CG        40.3410   12.0930   11.9170 C.3   255  ARG255      0.0489
    155  CD        39.6720   12.1570   13.2780 C.3   255  ARG255      0.2205
    156  NE        39.1400   13.4850   13.5430 N.pl3 255  ARG255     -0.0865
    157  CZ        38.1100   13.7370   14.3420 C.cat 255  ARG255      0.5346
    158  NH1       37.4840   12.7400   14.9550 N.pl3 255  ARG255      0.1354
    159  NH2       37.7220   14.9900   14.5490 N.pl3 255  ARG255      0.1354
    160  N         42.8960   15.3260    6.2700 N.3   258  LEU258     -0.1231
    161  CA        41.6180   15.6270    5.6500 C.3   258  LEU258      0.1693
    162  C         41.1610   17.0450    5.9530 C.2   258  LEU258      0.2591
    163  O         40.5160   17.6880    5.1240 O.2   258  LEU258     -0.2718
    164  CB        40.5510   14.6330    6.1070 C.3   258  LEU258      0.0284
    165  CG        39.1860   14.8050    5.4310 C.3   258  LEU258      0.0019
    166  CD1       39.3670   14.9780    3.9230 C.3   258  LEU258      0.0001
    167  CD2       38.3100   13.6080    5.7370 C.3   258  LEU258      0.0001
    168  N         41.4960   17.5280    7.1430 N.am  259  ALA259     -0.1980
    169  CA        41.1230   18.8760    7.5440 C.3   259  ALA259      0.1597
    170  C         41.9580   19.8860    6.7600 C.2   259  ALA259      0.2287
    171  O         41.4660   20.9400    6.3540 O.2   259  ALA259     -0.2864
    172  CB        41.3470   19.0500    9.0290 C.3   259  ALA259      0.0319
    173  N         40.5810   20.1170    3.2410 N.3   262  ILE262     -0.1245
    174  CA        39.3740   20.9190    3.2160 C.3   262  ILE262      0.1561
    175  C         39.6870   22.4040    3.2720 C.2   262  ILE262      0.2260
    176  O         39.2240   23.1690    2.4330 O.2   262  ILE262     -0.2867
    177  CB        38.4540   20.5470    4.4010 C.3   262  ILE262      0.0252
    178  CG1       37.8260   19.1760    4.1420 C.3   262  ILE262      0.0019
    179  CG2       37.3950   21.6280    4.6270 C.3   262  ILE262      0.0019
    180  CD1       37.0040   18.6510    5.3080 C.3   262  ILE262      0.0001
    181  N         39.5530   19.6670   12.8790 N.3   285  SER285     -0.1217
    182  CA        38.6070   18.5830   12.5870 C.3   285  SER285      0.1889
    183  C         37.3300   18.7160   13.3920 C.2   285  SER285      0.2288
    184  O         36.2360   18.6960   12.8390 O.2   285  SER285     -0.2866
    185  CB        39.2090   17.2140   12.9150 C.3   285  SER285      0.2089
    186  OG        40.3950   16.9570   12.1900 O.3   285  SER285     -0.2183
    187  N         35.2490   21.6810   12.0920 N.3   288  ILE288     -0.1231
    188  CA        34.6980   21.3480   10.7910 C.3   288  ILE288      0.1692
    189  C         33.5550   20.3350   10.8620 C.2   288  ILE288      0.2591
    190  O         32.4880   20.5430   10.2870 O.2   288  ILE288     -0.2718
    191  CB        35.8020   20.7940    9.8740 C.3   288  ILE288      0.0266
    192  CG1       36.9130   21.8340    9.7410 C.3   288  ILE288      0.0019
    193  CG2       35.2270   20.4250    8.5120 C.3   288  ILE288      0.0020
    194  CD1       38.0000   21.4750    8.7610 C.3   288  ILE288      0.0001
    195  N         33.7710   19.2310   11.5590 N.am  289  ALA289     -0.1980
    196  CA        32.7250   18.2290   11.6650 C.3   289  ALA289      0.1597
    197  C         31.4240   18.8790   12.1220 C.2   289  ALA289      0.2287
    198  O         30.3410   18.5450   11.6470 O.2   289  ALA289     -0.2864
    199  CB        33.1390   17.1430   12.6510 C.3   289  ALA289      0.0319
    200  N         30.5570   22.1890   11.8190 N.3   291  VAL291     -0.1245
    201  CA        30.1720   23.3760   11.0580 C.3   291  VAL291      0.1561
    202  C         28.7520   23.3970   10.5050 C.2   291  VAL291      0.2260
    203  O         28.2390   22.3840   10.0220 O.2   291  VAL291     -0.2867
    204  CB        31.1600   23.6220    9.8970 C.3   291  VAL291      0.0252
    205  CG1       30.9180   22.6230    8.7820 C.3   291  VAL291      0.0019
    206  CG2       31.0440   25.0560    9.4120 C.3   291  VAL291      0.0019
    207  N         16.4510   13.0160   13.9380 N.3   448  GLU448     -0.1231
    208  CA        17.2120   11.9070   13.4050 C.3   448  GLU448      0.1699
    209  C         18.4160   11.6620   14.2780 C.2   448  GLU448      0.2592
    210  O         18.6450   10.5540   14.7510 O.2   448  GLU448     -0.2718
    211  CB        17.6740   12.1870   11.9720 C.3   448  GLU448      0.0402
    212  CG        18.7340   11.2180   11.4920 C.3   448  GLU448      0.1161
    213  CD        19.1300   11.4160   10.0500 C.2   448  GLU448      0.3649
    214  OE1       19.3450   12.5710    9.6240 O.co2 448  GLU448     -0.2457
    215  OE2       19.2470   10.4040    9.3330 O.co2 448  GLU448     -0.2457
    216  N         19.1840   12.7190   14.4860 N.am  449  ASP449     -0.1974
    217  CA        20.3880   12.6440   15.2840 C.3   449  ASP449      0.1709
    218  C         20.1640   12.0620   16.6770 C.2   449  ASP449      0.2293
    219  O         20.9060   11.1750   17.0990 O.2   449  ASP449     -0.2864
    220  CB        21.0150   14.0320   15.3990 C.3   449  ASP449      0.1436
    221  CG        22.5330   13.9820   15.3930 C.2   449  ASP449      0.3671
    222  OD1       23.1180   13.6720   14.3220 O.co2 449  ASP449     -0.2456
    223  OD2       23.1370   14.2410   16.4590 O.co2 449  ASP449     -0.2456
    224  N         18.5560    8.1910   16.6030 N.3   452  SER452     -0.1217
    225  CA        19.4830    7.1350   16.2170 C.3   452  SER452      0.1889
    226  C         20.1820    6.5860   17.4610 C.2   452  SER452      0.2288
    227  O         20.3710    5.3760   17.6220 O.2   452  SER452     -0.2866
    228  CB        20.5320    7.6830   15.2480 C.3   452  SER452      0.2089
    229  OG        21.4000    8.6070   15.8970 O.3   452  SER452     -0.2183
    230  N         18.7600    0.1760    8.3980 N.3   479  LEU479     -0.1245
    231  CA        18.7710    1.4170    9.1690 C.3   479  LEU479      0.1561
    232  C         18.0300    2.5420    8.4550 C.2   479  LEU479      0.2260
    233  O         18.1750    3.7150    8.7940 O.2   479  LEU479     -0.2867
    234  CB        20.2090    1.8490    9.4810 C.3   479  LEU479      0.0270
    235  CG        20.3910    3.0340   10.4400 C.3   479  LEU479      0.0019
    236  CD1       19.4990    2.8920   11.6600 C.3   479  LEU479      0.0001
    237  CD2       21.8380    3.0890   10.8600 C.3   479  LEU479      0.0001
@<TRIPOS>BOND
     1   116   115    2
     2   115   114    1
     3   117   114    1
     4   117   118    1
     5   114   113    1
     6    48    49    1
     7    97    96    2
     8    96    95    1
     9    98    95    1
    10    98    99    1
    11   100    99    1
    12   176   175    2
    13   118   120   ar
    14   118   119   ar
    15   113   104   am
    16    49    50    1
    17    49    52    1
    18    80    81    2
    19    80    79    1
    20   120   122   ar
    21    64    65    1
    22    95    94    1
    23    99   101    1
    24   174   173    1
    25   174   175    1
    26   174   177    1
    27    50    51    2
    28    50    53   am
    29    55    56    2
    30    55    54    1
    31   119   121   ar
    32    94    85   am
    33   104   105    2
    34   104   103    1
    35    82    79    1
    36    79    78    1
    37    53    54    1
    38   122   123   ar
    39    83    84    1
    40   124   125    1
    41    78    66   am
    42   166   165    1
    43   102   103    1
    44    46    47    2
    45    46    45    1
    46    66    65    1
    47    66    67    2
    48    36    35    2
    49    65    68    1
    50   178   177    1
    51   178   180    1
    52    85    86    2
    53    85    84    1
    54   177   179    1
    55    54    57    1
    56    45    44    1
    57   103   106    1
    58   121   123   ar
    59    84    87    1
    60   128   125    1
    61   128   129    1
    62   125   126    1
    63    57    58    1
    64    60    62   ar
    65    60    58   ar
    66   163   162    2
    67    35    44   am
    68    35    34    1
    69   126   127    2
    70    68    69    1
    71   106   107    1
    72   165   167    1
    73   165   164    1
    74   161   162    1
    75   161   164    1
    76   161   160    1
    77    62    63   ar
    78    58    59   ar
    79    87    88    1
    80   131   129    1
    81   162   168   am
    82   129   130    1
    83   171   170    2
    84    34    37    1
    85    34    33    1
    86    69    70   ar
    87    69    71   ar
    88   132   133    1
    89    37    38    1
    90   170   169    1
    91    70    72   ar
    92   107   108    1
    93    63    61   ar
    94    59    61   ar
    95   168   169    1
    96    88    89    1
    97   138   136    1
    98   109   108    1
    99   109   110    2
   100   112   110    1
   101    71    74   ar
   102    71    73   ar
   103   169   172    1
   104    74    76   ar
   105    40    38   ar
   106    40    42   ar
   107    38    39   ar
   108   133   136    1
   109   133   134    1
   110    72    73   ar
   111   136   137    1
   112   110   111    1
   113    89    90    1
   114    73    75   ar
   115   230   231    1
   116   232   233    2
   117   232   231    1
   118   193   191    1
   119    76    77   ar
   120    42    43   ar
   121    30    29    2
   122   194   192    1
   123   139   134   am
   124   139   140    1
   125   205   204    1
   126    39    41   ar
   127   134   135    2
   128   231   234    1
   129    90    91    2
   130    75    77   ar
   131   215   213   ar
   132   206   204    1
   133   152   151    2
   134   234   235    1
   135   143   140    1
   136   143   144    1
   137   214   213   ar
   138    29    28    1
   139   192   191    1
   140   146   144   ar
   141   146   148   ar
   142   140   141    1
   143    43    41   ar
   144   191   188    1
   145   141   142    2
   146   204   201    1
   147   144   145   ar
   148   149   150    1
   149   151   150    1
   150   203   202    2
   151   213   212    1
   152   150   153    1
   153   148   147   ar
   154   190   189    2
   155    92    91    1
   156    91    93    1
   157   235   237    1
   158   235   236    1
   159   202   201    1
   160   145   147   ar
   161    31    28    1
   162    31    32    1
   163   188   189    1
   164   188   187    1
   165    28    27    1
   166   189   195   am
   167   201   200    1
   168   212   211    1
   169   195   196    1
   170    21    20    2
   171   198   197    2
   172   196   197    1
   173   196   199    1
   174   153   154    1
   175   154   155    1
   176   211   208    1
   177   186   185    1
   178   182   181    1
   179   182   185    1
   180   182   183    1
   181    25    26    1
   182    25    24    1
   183    20    19    1
   184   184   183    2
   185    22    19    1
   186    22    23    1
   187    19    18    1
   188   155   156    1
   189   208   207    1
   190   208   209    1
   191    23    24    1
   192   156   157    2
   193    13    12    2
   194   209   216   am
   195   209   210    2
   196   222   221   ar
   197   157   159    1
   198   157   158    1
   199   216   217    1
   200    18    12   am
   201    12    11    1
   202   228   229    1
   203   228   225    1
   204   217   220    1
   205   217   218    1
   206   221   220    1
   207   221   223   ar
   208    16    15    1
   209    15    17    1
   210    15    14    1
   211   225   224    1
   212   225   226    1
   213    11    14    1
   214    11    10    1
   215     4     3    2
   216   218   219    2
   217     9     8    1
   218   226   227    2
   219     3     2    1
   220     7     8    1
   221     7     6    1
   222     5     6    1
   223     5     2    1
   224     2     1    1
