@<TRIPOS>MOLECULE
tmp/2bxnA07.pdb
 107 99 0 0 0
SMALL
GASTEIGER

@<TRIPOS>ATOM
      1  N         24.5020   17.9650   32.0080 N.3   182  GLU182     -0.1245
      2  CA        24.4830   18.2390   30.5810 C.3   182  GLU182      0.1567
      3  C         25.7370   17.6570   29.9330 C.2   182  GLU182      0.2260
      4  O         25.6920   17.0850   28.8370 O.2   182  GLU182     -0.2867
      5  CB        24.4360   19.7480   30.3370 C.3   182  GLU182      0.0388
      6  CG        24.6140   20.1140   28.8700 C.3   182  GLU182      0.1160
      7  CD        24.6600   21.6190   28.6310 C.2   182  GLU182      0.3649
      8  OE1       23.6090   22.2670   28.7550 O.co2 182  GLU182     -0.2457
      9  OE2       25.7270   22.1440   28.2580 O.co2 182  GLU182     -0.2457
     10  N         25.7350   13.7100   29.7490 N.3   185  ASP185     -0.1225
     11  CA        24.7280   13.2940   28.7840 C.3   185  ASP185      0.1805
     12  C         25.3040   13.4490   27.3870 C.2   185  ASP185      0.2597
     13  O         25.2190   12.5450   26.5530 O.2   185  ASP185     -0.2718
     14  CB        23.4820   14.1620   28.9060 C.3   185  ASP185      0.1424
     15  CG        22.5630   13.7090   30.0110 C.2   185  ASP185      0.3668
     16  OD1       21.5750   14.4300   30.2780 O.co2 185  ASP185     -0.2456
     17  OD2       22.8200   12.6380   30.6050 O.co2 185  ASP185     -0.2456
     18  N         25.8910   14.6110   27.1400 N.am  186  GLU186     -0.1979
     19  CA        26.4830   14.9060   25.8500 C.3   186  GLU186      0.1602
     20  C         27.6520   13.9590   25.5730 C.2   186  GLU186      0.2287
     21  O         27.8350   13.4920   24.4440 O.2   186  GLU186     -0.2864
     22  CB        26.9450   16.3560   25.8400 C.3   186  GLU186      0.0415
     23  CG        27.0890   16.9620   24.4710 C.3   186  GLU186      0.1163
     24  CD        27.2930   18.4680   24.5430 C.2   186  GLU186      0.3649
     25  OE1       26.4370   19.1620   25.1510 O.co2 186  GLU186     -0.2457
     26  OE2       28.3060   18.9500   23.9870 O.co2 186  GLU186     -0.2457
     27  N         26.2680   10.6770   24.6130 N.3   189  ALA189     -0.1245
     28  CA        25.7600   10.7150   23.2480 C.3   189  ALA189      0.1562
     29  C         26.9090   10.6360   22.2520 C.2   189  ALA189      0.2260
     30  O         26.8290    9.9310   21.2440 O.2   189  ALA189     -0.2867
     31  CB        24.9600   11.9940   23.0230 C.3   189  ALA189      0.0290
     32  N         27.3270    7.5320   19.6290 N.3   193  LYS193     -0.1245
     33  CA        27.4280    7.8070   18.2060 C.3   193  LYS193      0.1561
     34  C         28.6430    7.1720   17.5580 C.2   193  LYS193      0.2260
     35  O         28.5220    6.5370   16.5170 O.2   193  LYS193     -0.2867
     36  CB        27.4710    9.3060   17.9470 C.3   193  LYS193      0.0271
     37  CG        26.1690   10.0230   18.1290 C.3   193  LYS193      0.0035
     38  CD        26.3260   11.4150   17.5910 C.3   193  LYS193      0.0206
     39  CE        25.0690   12.2110   17.7220 C.3   193  LYS193      0.1093
     40  NZ        25.3160   13.5480   17.1350 N.3   193  LYS193     -0.1314
     41  N         14.2250    9.7650   27.5100 N.3   427  ASN427     -0.1240
     42  CA        15.2010   10.2780   26.5580 C.3   427  ASN427      0.1653
     43  C         14.4190   10.7180   25.3430 C.2   427  ASN427      0.2266
     44  O         14.6920   11.7550   24.7360 O.2   427  ASN427     -0.2867
     45  CB        16.1810    9.1860   26.1560 C.3   427  ASN427      0.1155
     46  CG        16.9190    8.6310   27.3310 C.2   427  ASN427      0.2627
     47  OD1       17.4630    9.3850   28.1380 O.2   427  ASN427     -0.2716
     48  ND2       16.9470    7.3050   27.4470 N.am  427  ASN427     -0.0877
     49  N         12.9660   13.7810   25.8520 N.3   430  LYS430     -0.1231
     50  CA        13.9600   14.8360   25.7750 C.3   430  LYS430      0.1693
     51  C         14.0790   15.3120   24.3510 C.2   430  LYS430      0.2591
     52  O         13.9890   16.5080   24.0870 O.2   430  LYS430     -0.2718
     53  CB        15.3100   14.3310   26.2780 C.3   430  LYS430      0.0285
     54  CG        15.2540   14.0020   27.7680 C.3   430  LYS430      0.0035
     55  CD        16.4780   13.2140   28.2040 C.3   430  LYS430      0.0206
     56  CE        16.6720   13.3650   29.7050 C.3   430  LYS430      0.1093
     57  NZ        15.4330   12.9860   30.4470 N.3   430  LYS430     -0.1314
     58  N         14.2660   14.3750   23.4300 N.am  431  VAL431     -0.1980
     59  CA        14.3880   14.7170   22.0190 C.3   431  VAL431      0.1595
     60  C         13.3000   15.7200   21.6680 C.2   431  VAL431      0.2287
     61  O         13.5140   16.6390   20.8830 O.2   431  VAL431     -0.2864
     62  CB        14.2180   13.4780   21.1220 C.3   431  VAL431      0.0276
     63  CG1       14.4810   13.8490   19.6600 C.3   431  VAL431      0.0022
     64  CG2       15.1450   12.3670   21.5890 C.3   431  VAL431      0.0022
     65  N         14.0650   19.1560   23.1660 N.3   434  LYS434     -0.1245
     66  CA        15.2810   19.6880   22.5790 C.3   434  LYS434      0.1561
     67  C         15.1460   20.0530   21.1050 C.2   434  LYS434      0.2260
     68  O         15.8390   20.9420   20.6130 O.2   434  LYS434     -0.2867
     69  CB        16.4120   18.6730   22.7420 C.3   434  LYS434      0.0271
     70  CG        17.1030   18.0750   23.8380 C.3   434  LYS434      0.0035
     71  CD        17.8130   18.7150   24.9530 C.3   434  LYS434      0.0206
     72  CE        17.3560   18.7520   26.3460 C.3   434  LYS434      0.1093
     73  NZ        17.8410   17.7130   27.2710 N.3   434  LYS434     -0.1314
     74  N         19.1840   12.7190   14.4860 N.3   449  ASP449     -0.1225
     75  CA        20.3880   12.6440   15.2840 C.3   449  ASP449      0.1805
     76  C         20.1640   12.0620   16.6770 C.2   449  ASP449      0.2597
     77  O         20.9060   11.1750   17.0990 O.2   449  ASP449     -0.2718
     78  CB        21.0150   14.0320   15.3990 C.3   449  ASP449      0.1424
     79  CG        22.5330   13.9820   15.3930 C.2   449  ASP449      0.3668
     80  OD1       23.1180   13.6720   14.3220 O.co2 449  ASP449     -0.2456
     81  OD2       23.1370   14.2410   16.4590 O.co2 449  ASP449     -0.2456
     82  N         19.1500   12.5510   17.3900 N.am  450  TYR450     -0.1976
     83  CA        18.8640   12.0570   18.7370 C.3   450  TYR450      0.1639
     84  C         18.2530   10.6500   18.7740 C.2   450  TYR450      0.2290
     85  O         18.6220    9.8150   19.6160 O.2   450  TYR450     -0.2864
     86  CB        17.9280   13.0210   19.4770 C.3   450  TYR450      0.0560
     87  CG        18.5440   14.3530   19.8500 C.ar  450  TYR450     -0.0198
     88  CD1       18.5050   14.8180   21.1640 C.ar  450  TYR450     -0.0009
     89  CD2       19.1590   15.1540   18.8900 C.ar  450  TYR450     -0.0009
     90  CE1       19.0720   16.0560   21.5140 C.ar  450  TYR450      0.0417
     91  CE2       19.7250   16.3890   19.2250 C.ar  450  TYR450      0.0417
     92  CZ        19.6800   16.8310   20.5360 C.ar  450  TYR450      0.1957
     93  OH        20.2590   18.0400   20.8610 O.3   450  TYR450     -0.2866
     94  N         20.5700    7.5070   18.3290 N.3   453  VAL453     -0.1231
     95  CA        21.2470    7.1760   19.5620 C.3   453  VAL453      0.1692
     96  C         20.3120    6.3770   20.4490 C.2   453  VAL453      0.2591
     97  O         20.6530    5.2930   20.9140 O.2   453  VAL453     -0.2718
     98  CB        21.6820    8.4640   20.2830 C.3   453  VAL453      0.0266
     99  CG1       22.1910    8.1510   21.6710 C.3   453  VAL453      0.0020
    100  CG2       22.7650    9.1490   19.4790 C.3   453  VAL453      0.0020
    101  N         19.1250    6.9230   20.6640 N.am  454  VAL454     -0.1980
    102  CA        18.1110    6.2900   21.4910 C.3   454  VAL454      0.1595
    103  C         17.6600    4.9180   20.9750 C.2   454  VAL454      0.2287
    104  O         17.4570    3.9880   21.7550 O.2   454  VAL454     -0.2864
    105  CB        16.8770    7.2090   21.6040 C.3   454  VAL454      0.0276
    106  CG1       15.7610    6.5070   22.3630 C.3   454  VAL454      0.0022
    107  CG2       17.2690    8.5150   22.2830 C.3   454  VAL454      0.0022
@<TRIPOS>BOND
     1    80    79   ar
     2    74    75    1
     3    75    78    1
     4    75    76    1
     5    79    78    1
     6    79    81   ar
     7    35    34    2
     8    76    77    2
     9    76    82   am
    10    40    39    1
    11    82    83    1
    12    34    33    1
    13    38    39    1
    14    38    37    1
    15    36    37    1
    16    36    33    1
    17    33    32    1
    18    94    95    1
    19    83    84    1
    20    83    86    1
    21    84    85    2
    22    89    91   ar
    23    89    87   ar
    24    91    92   ar
    25    86    87    1
    26   100    98    1
    27    95    98    1
    28    95    96    1
    29    63    62    1
    30    87    88   ar
    31    98    99    1
    32    96   101   am
    33    96    97    2
    34    92    93    1
    35    92    90   ar
    36    68    67    2
    37   101   102    1
    38    61    60    2
    39   103   102    1
    40   103   104    2
    41    67    66    1
    42    62    64    1
    43    62    59    1
    44    88    90   ar
    45    30    29    2
    46   102   105    1
    47   105   107    1
    48   105   106    1
    49    60    59    1
    50    59    58    1
    51    29    28    1
    52    66    69    1
    53    66    65    1
    54    69    70    1
    55    31    28    1
    56    28    27    1
    57    58    51   am
    58    70    71    1
    59    26    24   ar
    60    52    51    2
    61    51    50    1
    62    21    20    2
    63    23    24    1
    64    23    22    1
    65    24    25   ar
    66    44    43    2
    67    71    72    1
    68    43    42    1
    69    20    19    1
    70    50    49    1
    71    50    53    1
    72    22    19    1
    73    19    18    1
    74    45    42    1
    75    45    46    1
    76    53    54    1
    77    72    73    1
    78    13    12    2
    79    42    41    1
    80    18    12   am
    81    46    48   am
    82    46    47    2
    83    12    11    1
    84    54    55    1
    85    55    56    1
    86     9     7   ar
    87     7     8   ar
    88     7     6    1
    89    11    14    1
    90    11    10    1
    91     4     3    2
    92     6     5    1
    93    14    15    1
    94    56    57    1
    95     3     2    1
    96    15    16   ar
    97    15    17   ar
    98     5     2    1
    99     2     1    1
