@<TRIPOS>MOLECULE
tmp/2bxoA07.pdb
 117 110 0 0 0
SMALL
GASTEIGER

@<TRIPOS>ATOM
      1  N          1.7800   17.9880   20.9230 N.3   392  LEU392     -0.1245
      2  CA         1.4940   17.3300   22.1910 C.3   392  LEU392      0.1561
      3  C          2.4990   17.7540   23.2660 C.2   392  LEU392      0.2260
      4  O          2.1200   18.1210   24.3770 O.2   392  LEU392     -0.2867
      5  CB         1.5440   15.8140   21.9890 C.3   392  LEU392      0.0270
      6  CG         1.4200   14.8590   23.1730 C.3   392  LEU392      0.0019
      7  CD1        0.2030   15.2040   24.0220 C.3   392  LEU392      0.0001
      8  CD2        1.3190   13.4350   22.6280 C.3   392  LEU392      0.0001
      9  N          1.7170   21.0310   24.7260 N.3   395  GLN395     -0.1231
     10  CA         0.5100   21.0310   25.5300 C.3   395  GLN395      0.1698
     11  C          0.8910   20.5590   26.9270 C.2   395  GLN395      0.2592
     12  O          0.4730   21.1450   27.9110 O.2   395  GLN395     -0.2718
     13  CB        -0.5250   20.0690   24.9470 C.3   395  GLN395      0.0381
     14  CG        -1.0330   20.4320   23.5630 C.3   395  GLN395      0.0905
     15  CD        -1.7940   19.2850   22.9160 C.2   395  GLN395      0.2608
     16  OE1       -2.6990   18.7180   23.5250 O.2   395  GLN395     -0.2717
     17  NE2       -1.4280   18.9350   21.6760 N.am  395  GLN395     -0.0878
     18  N          1.6690   19.4820   26.9970 N.am  396  LEU396     -0.1980
     19  CA         2.1280   18.9160   28.2630 C.3   396  LEU396      0.1596
     20  C          3.5570   19.3780   28.4120 C.2   396  LEU396      0.2287
     21  O          4.1000   19.9810   27.5000 O.2   396  LEU396     -0.2864
     22  CB         2.1270   17.3960   28.2000 C.3   396  LEU396      0.0297
     23  CG         0.8520   16.7350   27.6990 C.3   396  LEU396      0.0022
     24  CD1        1.1750   15.3360   27.2240 C.3   396  LEU396      0.0001
     25  CD2       -0.1940   16.7270   28.7980 C.3   396  LEU396      0.0001
     26  N          8.0400   16.3390   31.4500 N.3   399  TYR399     -0.1227
     27  CA         7.5960   15.2850   32.3500 C.3   399  TYR399      0.1736
     28  C          6.2670   14.6330   31.9690 C.2   399  TYR399      0.2595
     29  O          6.1850   13.4120   31.8490 O.2   399  TYR399     -0.2718
     30  CB         7.5010   15.8240   33.7820 C.3   399  TYR399      0.0548
     31  CG         6.9280   14.8140   34.7280 C.ar  399  TYR399     -0.0200
     32  CD1        7.6840   13.7200   35.1470 C.ar  399  TYR399     -0.0009
     33  CD2        5.6070   14.9120   35.1520 C.ar  399  TYR399     -0.0009
     34  CE1        7.1360   12.7440   35.9650 C.ar  399  TYR399      0.0417
     35  CE2        5.0470   13.9420   35.9720 C.ar  399  TYR399      0.0417
     36  CZ         5.8180   12.8600   36.3740 C.ar  399  TYR399      0.1957
     37  OH         5.2530   11.9050   37.1880 O.3   399  TYR399     -0.2866
     38  N          5.2210   15.4320   31.8020 N.am  400  LYS400     -0.1980
     39  CA         3.9270   14.8680   31.4480 C.3   400  LYS400      0.1596
     40  C          3.9760   14.2310   30.0700 C.2   400  LYS400      0.2287
     41  O          3.3010   13.2280   29.8150 O.2   400  LYS400     -0.2864
     42  CB         2.8330   15.9360   31.4790 C.3   400  LYS400      0.0298
     43  CG         2.1620   16.1070   32.8370 C.3   400  LYS400      0.0038
     44  CD         0.9560   17.0330   32.7350 C.3   400  LYS400      0.0206
     45  CE         0.1910   17.1180   34.0430 C.3   400  LYS400      0.1093
     46  NZ        -0.9930   18.0170   33.9140 N.3   400  LYS400     -0.1314
     47  N          5.1770   10.8420   30.2530 N.3   403  ASN403     -0.1225
     48  CA         4.1900    9.9080   30.7600 C.3   403  ASN403      0.1785
     49  C          3.3130    9.3850   29.6280 C.2   403  ASN403      0.2597
     50  O          2.9430    8.2140   29.6080 O.2   403  ASN403     -0.2718
     51  CB         3.3440   10.5880   31.8280 C.3   403  ASN403      0.1169
     52  CG         4.1280   10.8680   33.0830 C.2   403  ASN403      0.2627
     53  OD1        5.3150   10.5350   33.1730 O.2   403  ASN403     -0.2716
     54  ND2        3.4720   11.4700   34.0680 N.am  403  ASN403     -0.0877
     55  N          3.0000   10.2630   28.6800 N.am  404  ALA404     -0.1979
     56  CA         2.1910    9.9010   27.5300 C.3   404  ALA404      0.1597
     57  C          2.9250    8.8430   26.7190 C.2   404  ALA404      0.2287
     58  O          2.3190    7.8620   26.2730 O.2   404  ALA404     -0.2864
     59  CB         1.9230   11.1260   26.6770 C.3   404  ALA404      0.0319
     60  N          2.8190    5.4400   28.5280 N.3   407  VAL407     -0.1245
     61  CA         1.5910    4.7150   28.2820 C.3   407  VAL407      0.1561
     62  C          1.6100    4.1150   26.8810 C.2   407  VAL407      0.2260
     63  O          1.3280    2.9310   26.6980 O.2   407  VAL407     -0.2867
     64  CB         0.3850    5.6390   28.4200 C.3   407  VAL407      0.0252
     65  CG1       -0.8920    4.8850   28.0790 C.3   407  VAL407      0.0019
     66  CG2        0.3310    6.1850   29.8470 C.3   407  VAL407      0.0019
     67  N         -7.3960    6.2940   27.5670 N.3   539  LYS539     -0.1231
     68  CA        -6.6720    7.4880   27.9860 C.3   539  LYS539      0.1693
     69  C         -7.5060    8.2050   29.0270 C.2   539  LYS539      0.2591
     70  O         -6.9890    8.6610   30.0410 O.2   539  LYS539     -0.2718
     71  CB        -6.4210    8.4430   26.8200 C.3   539  LYS539      0.0285
     72  CG        -5.2920    8.0260   25.9020 C.3   539  LYS539      0.0035
     73  CD        -4.9400    9.1520   24.9490 C.3   539  LYS539      0.0206
     74  CE        -3.9260    8.6900   23.9150 C.3   539  LYS539      0.1093
     75  NZ        -3.6180    9.7630   22.9300 N.3   539  LYS539     -0.1314
     76  N         -8.8040    8.3080   28.7720 N.am  540  GLU540     -0.1979
     77  CA        -9.6870    8.9670   29.7190 C.3   540  GLU540      0.1602
     78  C         -9.6170    8.2210   31.0430 C.2   540  GLU540      0.2287
     79  O         -9.2340    8.7980   32.0600 O.2   540  GLU540     -0.2864
     80  CB       -11.1210    8.9960   29.1860 C.3   540  GLU540      0.0415
     81  CG       -11.3430    9.9680   28.0000 C.3   540  GLU540      0.1163
     82  CD       -11.2080   11.4290   28.3690 C.2   540  GLU540      0.3649
     83  OE1      -11.9570   12.0200   29.1310 O.co2 540  GLU540     -0.2457
     84  OE2      -10.2020   11.9460   27.8680 O.co2 540  GLU540     -0.2457
     85  N         -7.4960    6.2360   32.2640 N.3   542  LEU542     -0.1231
     86  CA        -6.1530    6.4080   32.7980 C.3   542  LEU542      0.1693
     87  C         -5.9090    7.8240   33.2890 C.2   542  LEU542      0.2591
     88  O         -5.4720    8.0310   34.4200 O.2   542  LEU542     -0.2718
     89  CB        -5.1300    6.0460   31.7200 C.3   542  LEU542      0.0284
     90  CG        -4.2830    4.7850   31.9040 C.3   542  LEU542      0.0019
     91  CD1       -5.0660    3.6900   32.5960 C.3   542  LEU542      0.0001
     92  CD2       -3.8010    4.3350   30.5450 C.3   542  LEU542      0.0001
     93  N         -6.1830    8.7950   32.4270 N.am  543  LYS543     -0.1980
     94  CA        -6.0020   10.2000   32.7570 C.3   543  LYS543      0.1596
     95  C         -6.6520   10.5210   34.1020 C.2   543  LYS543      0.2287
     96  O         -6.1230   11.3090   34.8830 O.2   543  LYS543     -0.2864
     97  CB        -6.5980   11.0540   31.6350 C.3   543  LYS543      0.0298
     98  CG        -7.1600   12.4010   32.0410 C.3   543  LYS543      0.0038
     99  CD        -6.0910   13.4030   32.3530 C.3   543  LYS543      0.0206
    100  CE        -6.7130   14.7720   32.5690 C.3   543  LYS543      0.1093
    101  NZ        -5.7630   15.7380   33.1900 N.3   543  LYS543     -0.1314
    102  N         -4.4870    8.7980   37.0440 N.3   546  MET546     -0.1230
    103  CA        -3.2470    9.5440   37.1670 C.3   546  MET546      0.1702
    104  C         -3.3980   10.8350   37.9360 C.2   546  MET546      0.2592
    105  O         -2.6260   11.1060   38.8500 O.2   546  MET546     -0.2718
    106  CB        -2.6700    9.8540   35.7930 C.3   546  MET546      0.0401
    107  CG        -1.8770    8.7270   35.1900 C.3   546  MET546      0.0596
    108  SD        -1.4770    9.1190   33.5010 S.3   546  MET546     -0.1393
    109  CE        -2.6200    8.0870   32.6610 C.3   546  MET546      0.0692
    110  N         -4.3860   11.6390   37.5660 N.am  547  ASP547     -0.1974
    111  CA        -4.5870   12.9070   38.2480 C.3   547  ASP547      0.1709
    112  C         -5.0210   12.7020   39.6980 C.2   547  ASP547      0.2293
    113  O         -4.7170   13.5250   40.5640 O.2   547  ASP547     -0.2864
    114  CB        -5.6030   13.7690   37.4900 C.3   547  ASP547      0.1436
    115  CG        -5.1290   14.1380   36.0830 C.2   547  ASP547      0.3671
    116  OD1       -3.9500   14.5260   35.9120 O.co2 547  ASP547     -0.2456
    117  OD2       -5.9460   14.0520   35.1450 O.co2 547  ASP547     -0.2456
@<TRIPOS>BOND
     1     1     2    1
     2    17    15   am
     3     5     2    1
     4     5     6    1
     5     2     3    1
     6     8     6    1
     7    15    16    2
     8    15    14    1
     9    75    74    1
    10     6     7    1
    11     3     4    2
    12    14    13    1
    13    74    73    1
    14     9    10    1
    15    13    10    1
    16    73    72    1
    17    10    11    1
    18    72    71    1
    19    58    57    2
    20    59    56    1
    21    63    62    2
    22    57    56    1
    23    71    68    1
    24    62    61    1
    25    11    18   am
    26    11    12    2
    27    18    19    1
    28    24    23    1
    29    21    20    2
    30    56    55    1
    31    67    68    1
    32    23    22    1
    33    23    25    1
    34    84    82   ar
    35    68    69    1
    36    81    82    1
    37    81    80    1
    38    65    64    1
    39    22    19    1
    40    19    20    1
    41    61    64    1
    42    61    60    1
    43    82    83   ar
    44    64    66    1
    45    55    49   am
    46    76    69   am
    47    76    77    1
    48    69    70    2
    49    80    77    1
    50    50    49    2
    51    49    48    1
    52    77    78    1
    53    41    40    2
    54    40    39    1
    55    47    48    1
    56    92    90    1
    57    48    51    1
    58    78    79    2
    59    39    42    1
    60    39    38    1
    61    26    27    1
    62    42    43    1
    63    97    98    1
    64    97    94    1
    65    89    90    1
    66    89    86    1
    67    38    28   am
    68    51    52    1
    69    29    28    2
    70    90    91    1
    71    28    27    1
    72    98    99    1
    73    85    86    1
    74    27    30    1
    75    99   100    1
    76    93    94    1
    77    93    87   am
    78   100   101    1
    79   109   108    1
    80    44    43    1
    81    44    45    1
    82    94    95    1
    83    86    87    1
    84    52    53    2
    85    52    54   am
    86    87    88    2
    87   108   107    1
    88    30    31    1
    89    46    45    1
    90    95    96    2
    91    31    32   ar
    92    31    33   ar
    93   117   115   ar
    94    32    34   ar
    95    33    35   ar
    96   107   106    1
    97   106   103    1
    98   116   115   ar
    99    34    36   ar
   100    35    36   ar
   101   115   114    1
   102    36    37    1
   103   102   103    1
   104   103   104    1
   105   114   111    1
   106   110   104   am
   107   110   111    1
   108   104   105    2
   109   111   112    1
   110   112   113    2
