@<TRIPOS>MOLECULE
tmp/2bxpA06.pdb
 112 107 0 0 0
SMALL
GASTEIGER

@<TRIPOS>ATOM
      1  N         27.1370    7.6540   19.2040 N.3   193  LYS193     -0.1245
      2  CA        27.2900    7.9910   17.7960 C.3   193  LYS193      0.1561
      3  C         28.5290    7.3410   17.1970 C.2   193  LYS193      0.2260
      4  O         28.4850    6.8580   16.0680 O.2   193  LYS193     -0.2867
      5  CB        27.3870    9.5000   17.6050 C.3   193  LYS193      0.0271
      6  CG        26.1630   10.2830   18.0170 C.3   193  LYS193      0.0035
      7  CD        26.2680   11.7060   17.4980 C.3   193  LYS193      0.0206
      8  CE        25.1860   12.5950   18.0750 C.3   193  LYS193      0.1093
      9  NZ        25.2460   13.9410   17.4380 N.3   193  LYS193     -0.1314
     10  N         27.8760    3.4910   16.9660 N.3   196  LEU196     -0.1231
     11  CA        26.8890    3.2970   15.9080 C.3   196  LEU196      0.1693
     12  C         27.5260    3.4280   14.5290 C.2   196  LEU196      0.2591
     13  O         27.2790    2.6090   13.6460 O.2   196  LEU196     -0.2718
     14  CB        25.7620    4.3250   16.0510 C.3   196  LEU196      0.0284
     15  CG        24.6390    4.3470   15.0090 C.3   196  LEU196      0.0019
     16  CD1       23.9200    2.9970   14.9680 C.3   196  LEU196      0.0001
     17  CD2       23.6720    5.4570   15.3650 C.3   196  LEU196      0.0001
     18  N         28.3450    4.4610   14.3420 N.am  197  LYS197     -0.1980
     19  CA        29.0150    4.6830   13.0610 C.3   197  LYS197      0.1596
     20  C         29.8300    3.4640   12.6200 C.2   197  LYS197      0.2287
     21  O         29.7620    3.0290   11.4700 O.2   197  LYS197     -0.2864
     22  CB        29.9470    5.8890   13.1590 C.3   197  LYS197      0.0298
     23  CG        30.5520    6.4310   11.8900 C.3   197  LYS197      0.0038
     24  CD        30.6800    7.9820   12.1150 C.3   197  LYS197      0.0206
     25  CE        29.3160    8.5030   12.6340 C.3   197  LYS197      0.1093
     26  NZ        29.4950    9.9550   13.0440 N.3   197  LYS197     -0.1314
     27  N         27.5050    0.1680   12.0460 N.3   200  SER200     -0.1217
     28  CA        26.7510    0.2930   10.8130 C.3   200  SER200      0.1889
     29  C         27.6800    0.0490    9.6380 C.2   200  SER200      0.2288
     30  O         27.2920   -0.5610    8.6400 O.2   200  SER200     -0.2866
     31  CB        26.1560    1.6900   10.7090 C.3   200  SER200      0.2089
     32  OG        25.3510    1.9620   11.8390 O.3   200  SER200     -0.2183
     33  N         26.1880   -2.9950    7.4230 N.3   204  PHE204     -0.1227
     34  CA        25.6410   -2.6860    6.1120 C.3   204  PHE204      0.1736
     35  C         26.6200   -2.4000    4.9960 C.2   204  PHE204      0.2596
     36  O         26.2240   -2.2490    3.8430 O.2   204  PHE204     -0.2718
     37  CB        24.6400   -1.5490    6.2440 C.3   204  PHE204      0.0547
     38  CG        23.7080   -1.7150    7.4060 C.ar  204  PHE204     -0.0202
     39  CD1       23.9660   -1.0830    8.6140 C.ar  204  PHE204     -0.0042
     40  CD2       22.5870   -2.5350    7.3060 C.ar  204  PHE204     -0.0042
     41  CE1       23.1240   -1.2640    9.7100 C.ar  204  PHE204     -0.0003
     42  CE2       21.7360   -2.7250    8.3950 C.ar  204  PHE204     -0.0003
     43  CZ        22.0050   -2.0890    9.5990 C.ar  204  PHE204     -0.0000
     44  N         27.8980   -2.3270    5.3170 N.am  205  GLY205     -0.1957
     45  CA        28.8590   -2.1100    4.2600 C.3   205  GLY205      0.1869
     46  C         29.1660   -0.6920    3.8330 C.2   205  GLY205      0.2309
     47  O         28.5090    0.2750    4.2210 O.2   205  GLY205     -0.2863
     48  N         26.4340    1.5800    1.5710 N.3   208  ALA208     -0.1231
     49  CA        25.4480    2.2290    2.4140 C.3   208  ALA208      0.1694
     50  C         26.0470    3.4260    3.1740 C.2   208  ALA208      0.2592
     51  O         25.3980    4.4530    3.3430 O.2   208  ALA208     -0.2718
     52  CB        24.8720    1.2110    3.4000 C.3   208  ALA208      0.0304
     53  N         27.2820    3.2810    3.6370 N.am  209  PHE209     -0.1976
     54  CA        27.9270    4.3430    4.3780 C.3   209  PHE209      0.1639
     55  C         28.2010    5.5140    3.4350 C.2   209  PHE209      0.2290
     56  O         27.9990    6.6730    3.7830 O.2   209  PHE209     -0.2864
     57  CB        29.2410    3.8440    4.9910 C.3   209  PHE209      0.0560
     58  CG        29.9780    4.8990    5.7580 C.ar  209  PHE209     -0.0200
     59  CD1       29.7210    5.1030    7.1010 C.ar  209  PHE209     -0.0042
     60  CD2       30.8980    5.7200    5.1190 C.ar  209  PHE209     -0.0042
     61  CE1       30.3670    6.1150    7.8050 C.ar  209  PHE209     -0.0003
     62  CE2       31.5500    6.7370    5.8070 C.ar  209  PHE209     -0.0003
     63  CZ        31.2860    6.9350    7.1530 C.ar  209  PHE209     -0.0000
     64  N         25.0730    7.4690    2.6940 N.3   212  TRP212     -0.1241
     65  CA        24.7550    8.2600    3.8650 C.3   212  TRP212      0.1605
     66  C         25.6310    9.5280    3.8940 C.2   212  TRP212      0.2264
     67  O         25.1340   10.6180    4.1360 O.2   212  TRP212     -0.2867
     68  CB        24.9820    7.4130    5.1120 C.3   212  TRP212      0.0550
     69  CG        24.6330    8.1080    6.3560 C.ar  212  TRP212      0.0003
     70  CD1       23.4090    8.1760    6.9400 C.ar  212  TRP212      0.0946
     71  CD2       25.5060    8.9110    7.1460 C.ar  212  TRP212      0.0152
     72  NE1       23.4610    8.9790    8.0490 N.ar  212  TRP212     -0.2442
     73  CE2       24.7400    9.4420    8.1990 C.ar  212  TRP212      0.0810
     74  CE3       26.8690    9.2300    7.0680 C.ar  212  TRP212      0.0012
     75  CZ2       25.2860   10.2830    9.1710 C.ar  212  TRP212      0.0191
     76  CZ3       27.4130   10.0600    8.0320 C.ar  212  TRP212      0.0001
     77  CH2       26.6230   10.5780    9.0720 C.ar  212  TRP212      0.0015
     78  N         17.7380    8.9630    1.9400 N.3   345  LEU345     -0.1245
     79  CA        18.1110    7.6100    1.5420 C.3   345  LEU345      0.1561
     80  C         16.8890    6.8060    1.1110 C.2   345  LEU345      0.2260
     81  O         16.9890    5.9620    0.2230 O.2   345  LEU345     -0.2867
     82  CB        18.8460    6.8920    2.6800 C.3   345  LEU345      0.0270
     83  CG        20.2230    7.4450    3.0640 C.3   345  LEU345      0.0019
     84  CD1       20.9170    6.4700    4.0130 C.3   345  LEU345      0.0001
     85  CD2       21.0710    7.6350    1.8310 C.3   345  LEU345      0.0001
     86  N         18.5150    8.4930   16.6440 N.3   452  SER452     -0.1217
     87  CA        19.4550    7.4520   16.2550 C.3   452  SER452      0.1889
     88  C         20.1650    6.8580   17.4800 C.2   452  SER452      0.2288
     89  O         20.3570    5.6460   17.5670 O.2   452  SER452     -0.2866
     90  CB        20.4920    7.9970   15.2600 C.3   452  SER452      0.2089
     91  OG        21.3260    8.9850   15.8630 O.3   452  SER452     -0.2183
     92  N         17.1300   -2.5610    8.2070 N.3   478  SER478     -0.1202
     93  CA        18.1150   -1.5590    7.7900 C.3   478  SER478      0.2020
     94  C         17.9450   -0.2900    8.6310 C.2   478  SER478      0.2619
     95  O         16.8430    0.0060    9.1000 O.2   478  SER478     -0.2717
     96  CB        17.9440   -1.2150    6.3080 C.3   478  SER478      0.2103
     97  OG        16.6980   -0.5900    6.0640 O.3   478  SER478     -0.2182
     98  N         19.0380    0.4480    8.8250 N.am  479  LEU479     -0.1965
     99  CA        18.9990    1.6850    9.5980 C.3   479  LEU479      0.1728
    100  C         18.0660    2.7080    8.9550 C.2   479  LEU479      0.2616
    101  O         17.6950    3.7000    9.5740 O.2   479  LEU479     -0.2715
    102  CB        20.3960    2.3050    9.7190 C.3   479  LEU479      0.0311
    103  CG        21.4010    1.7690   10.7380 C.3   479  LEU479      0.0022
    104  CD1       22.6020    2.7010   10.7530 C.3   479  LEU479      0.0001
    105  CD2       20.7780    1.7080   12.1370 C.3   479  LEU479      0.0001
    106  N         17.7030    2.4740    7.7030 N.am  480  VAL480     -0.1977
    107  CA        16.8140    3.3810    7.0090 C.3   480  VAL480      0.1596
    108  C         15.3700    3.1140    7.4200 C.2   480  VAL480      0.2287
    109  O         14.5550    4.0370    7.5040 O.2   480  VAL480     -0.2864
    110  CB        16.9640    3.2260    5.4860 C.3   480  VAL480      0.0276
    111  CG1       15.9200    4.0540    4.7620 C.3   480  VAL480      0.0022
    112  CG2       18.3600    3.6690    5.0690 C.3   480  VAL480      0.0022
@<TRIPOS>BOND
     1    81    80    2
     2    80    79    1
     3    79    78    1
     4    79    82    1
     5    48    49    1
     6    85    83    1
     7    49    50    1
     8    49    52    1
     9    82    83    1
    10    64    65    1
    11    83    84    1
    12    50    51    2
    13    50    53   am
    14    55    56    2
    15    55    54    1
    16    53    54    1
    17    46    47    2
    18    46    45    1
    19    36    35    2
    20    65    66    1
    21    65    68    1
    22    66    67    2
    23    45    44    1
    24    54    57    1
    25   111   110    1
    26    57    58    1
    27    35    44   am
    28    35    34    1
    29   112   110    1
    30    68    69    1
    31    60    58   ar
    32    60    62   ar
    33   110   107    1
    34    58    59   ar
    35    62    63   ar
    36    97    96    1
    37    34    37    1
    38    34    33    1
    39    37    38    1
    40    96    93    1
    41    69    70   ar
    42    69    71   ar
    43    70    72   ar
    44   107   108    1
    45   107   106    1
    46    74    71   ar
    47    74    76   ar
    48    59    61   ar
    49    71    73   ar
    50    63    61   ar
    51    40    38   ar
    52    40    42   ar
    53    38    39   ar
    54   108   109    2
    55   106   100   am
    56    93    92    1
    57    93    94    1
    58    76    77   ar
    59    72    73   ar
    60    73    75   ar
    61    42    43   ar
    62    39    41   ar
    63    94    98   am
    64    94    95    2
    65    30    29    2
    66    98    99    1
    67   100   101    2
    68   100    99    1
    69    77    75   ar
    70    99   102    1
    71    43    41   ar
    72    29    28    1
    73   102   103    1
    74    31    28    1
    75    31    32    1
    76   103   104    1
    77   103   105    1
    78    28    27    1
    79    21    20    2
    80    23    24    1
    81    23    22    1
    82    24    25    1
    83    20    19    1
    84    25    26    1
    85    19    22    1
    86    19    18    1
    87    13    12    2
    88    18    12   am
    89    12    11    1
    90    16    15    1
    91    15    17    1
    92    15    14    1
    93    90    91    1
    94    90    87    1
    95    11    14    1
    96    11    10    1
    97     4     3    2
    98    87    86    1
    99    87    88    1
   100     3     2    1
   101     9     8    1
   102    88    89    2
   103     7     6    1
   104     7     8    1
   105     5     2    1
   106     5     6    1
   107     2     1    1
