@<TRIPOS>MOLECULE
tmp/2bxqA08.pdb
 139 132 0 0 0
SMALL
GASTEIGER

@<TRIPOS>ATOM
      1  N         31.4830    2.0370   39.0580 N.3   112  ARG112     -0.1231
      2  CA        30.8930    3.2350   38.4780 C.3   112  ARG112      0.1694
      3  C         31.6210    4.4130   39.1480 C.2   112  ARG112      0.2591
      4  O         32.0450    4.3300   40.3020 O.2   112  ARG112     -0.2718
      5  CB        29.3900    3.3220   38.7670 C.3   112  ARG112      0.0321
      6  CG        29.0430    3.3740   40.2500 C.3   112  ARG112      0.0489
      7  CD        27.6660    3.9860   40.5070 C.3   112  ARG112      0.2205
      8  NE        27.6560    5.4120   40.1980 N.pl3 112  ARG112     -0.0865
      9  CZ        26.7680    6.2810   40.6750 C.cat 112  ARG112      0.5346
     10  NH1       25.8060    5.8700   41.4920 N.pl3 112  ARG112      0.1354
     11  NH2       26.8480    7.5660   40.3430 N.pl3 112  ARG112      0.1354
     12  N         31.7880    5.4960   38.4090 N.am  113  LEU113     -0.1980
     13  CA        32.4470    6.6830   38.9270 C.3   113  LEU113      0.1596
     14  C         31.3620    7.5190   39.5960 C.2   113  LEU113      0.2287
     15  O         30.4290    7.9620   38.9340 O.2   113  LEU113     -0.2864
     16  CB        33.0660    7.4490   37.7620 C.3   113  LEU113      0.0297
     17  CG        34.4830    8.0030   37.8570 C.3   113  LEU113      0.0022
     18  CD1       35.4580    6.9310   38.3370 C.3   113  LEU113      0.0001
     19  CD2       34.8710    8.5220   36.4730 C.3   113  LEU113      0.0001
     20  N         38.1380    8.5910   33.2770 N.3   140  ILE140     -0.1245
     21  CA        37.2190    8.5500   32.1540 C.3   140  ILE140      0.1561
     22  C         37.8400    7.8070   30.9710 C.2   140  ILE140      0.2260
     23  O         37.1990    6.9760   30.3370 O.2   140  ILE140     -0.2867
     24  CB        36.8290    9.9800   31.6710 C.3   140  ILE140      0.0252
     25  CG1       36.3470   10.8510   32.8470 C.3   140  ILE140      0.0019
     26  CG2       35.7360    9.8810   30.6110 C.3   140  ILE140      0.0019
     27  CD1       35.0900   10.3740   33.5320 C.3   140  ILE140      0.0001
     28  N         37.9330    4.0080   31.0810 N.3   143  ARG143     -0.1231
     29  CA        36.5950    3.4500   30.9210 C.3   143  ARG143      0.1694
     30  C         36.0620    3.5140   29.4750 C.2   143  ARG143      0.2592
     31  O         35.0920    2.8410   29.1280 O.2   143  ARG143     -0.2718
     32  CB        35.6360    4.1630   31.8830 C.3   143  ARG143      0.0321
     33  CG        35.9660    3.8960   33.3540 C.3   143  ARG143      0.0489
     34  CD        35.0090    4.5840   34.3020 C.3   143  ARG143      0.2205
     35  NE        35.1550    4.1430   35.6890 N.pl3 143  ARG143     -0.0865
     36  CZ        36.2150    4.3750   36.4670 C.cat 143  ARG143      0.5346
     37  NH1       37.2550    5.0520   36.0050 N.pl3 143  ARG143      0.1354
     38  NH2       36.2330    3.9330   37.7210 N.pl3 143  ARG143      0.1354
     39  N         36.7020    4.3090   28.6270 N.am  144  HIS144     -0.1976
     40  CA        36.2710    4.4380   27.2330 C.3   144  HIS144      0.1656
     41  C         37.4950    4.4200   26.3410 C.2   144  HIS144      0.2291
     42  O         37.7970    5.4060   25.6920 O.2   144  HIS144     -0.2864
     43  CB        35.5200    5.7530   27.0470 C.3   144  HIS144      0.0771
     44  CG        34.2980    5.8700   27.9030 C.ar  144  HIS144      0.0820
     45  ND1       33.0430    5.5000   27.4650 N.ar  144  HIS144     -0.2267
     46  CD2       34.1480    6.2640   29.1880 C.ar  144  HIS144      0.1154
     47  CE1       32.1730    5.6610   28.4460 C.ar  144  HIS144      0.1986
     48  NE2       32.8180    6.1220   29.5020 N.ar  144  HIS144     -0.2212
     49  N         37.1580    6.0030   22.8460 N.3   147  PHE147     -0.1241
     50  CA        36.8000    7.4020   22.6850 C.3   147  PHE147      0.1605
     51  C         38.0160    8.1390   22.1130 C.2   147  PHE147      0.2264
     52  O         39.1000    8.1290   22.7080 O.2   147  PHE147     -0.2867
     53  CB        36.4110    7.9680   24.0400 C.3   147  PHE147      0.0534
     54  CG        35.5460    9.1820   23.9720 C.ar  147  PHE147     -0.0203
     55  CD1       34.2770    9.1690   24.5410 C.ar  147  PHE147     -0.0042
     56  CD2       36.0080   10.3570   23.3950 C.ar  147  PHE147     -0.0042
     57  CE1       33.4750   10.3170   24.5400 C.ar  147  PHE147     -0.0003
     58  CE2       35.2180   11.5150   23.3880 C.ar  147  PHE147     -0.0003
     59  CZ        33.9520   11.4990   23.9600 C.ar  147  PHE147     -0.0000
     60  N         38.2540   13.7010   23.7100 N.3   152  LEU152     -0.1245
     61  CA        38.1880   13.5660   25.1440 C.3   152  LEU152      0.1561
     62  C         38.8460   14.8030   25.7530 C.2   152  LEU152      0.2260
     63  O         38.4360   15.2910   26.8040 O.2   152  LEU152     -0.2867
     64  CB        38.9090   12.2910   25.5540 C.3   152  LEU152      0.0270
     65  CG        38.7040   11.7940   26.9840 C.3   152  LEU152      0.0019
     66  CD1       37.2320   11.8880   27.3790 C.3   152  LEU152      0.0001
     67  CD2       39.1940   10.3570   27.0690 C.3   152  LEU152      0.0001
     68  N         36.4810   17.8140   25.8630 N.3   155  PHE155     -0.1241
     69  CA        35.5280   17.7120   26.9490 C.3   155  PHE155      0.1605
     70  C         36.1460   18.1340   28.2700 C.2   155  PHE155      0.2264
     71  O         35.5020   18.8070   29.0730 O.2   155  PHE155     -0.2867
     72  CB        35.0050   16.2910   27.0430 C.3   155  PHE155      0.0534
     73  CG        33.7910   16.0520   26.2060 C.ar  155  PHE155     -0.0203
     74  CD1       32.5390   16.4930   26.6400 C.ar  155  PHE155     -0.0042
     75  CD2       33.8940   15.4150   24.9700 C.ar  155  PHE155     -0.0042
     76  CE1       31.4110   16.3040   25.8580 C.ar  155  PHE155     -0.0003
     77  CE2       32.7700   15.2190   24.1750 C.ar  155  PHE155     -0.0003
     78  CZ        31.5250   15.6640   24.6180 C.ar  155  PHE155     -0.0000
     79  N         34.9890   20.9230   30.9590 N.3   159  TYR159     -0.1241
     80  CA        34.8450   20.6640   32.3840 C.3   159  TYR159      0.1605
     81  C         35.6200   21.6820   33.2040 C.2   159  TYR159      0.2264
     82  O         35.1220   22.1860   34.2060 O.2   159  TYR159     -0.2867
     83  CB        35.3300   19.2620   32.7440 C.3   159  TYR159      0.0534
     84  CG        34.2410   18.2240   32.6780 C.ar  159  TYR159     -0.0201
     85  CD1       34.0370   17.4830   31.5200 C.ar  159  TYR159     -0.0009
     86  CD2       33.4000   17.9940   33.7650 C.ar  159  TYR159     -0.0009
     87  CE1       33.0260   16.5370   31.4380 C.ar  159  TYR159      0.0417
     88  CE2       32.3810   17.0440   33.6960 C.ar  159  TYR159      0.0417
     89  CZ        32.2030   16.3170   32.5220 C.ar  159  TYR159      0.1957
     90  OH        31.2160   15.3640   32.4140 O.3   159  TYR159     -0.2866
     91  N         27.1640   18.0720   30.5120 N.3   183  LEU183     -0.1231
     92  CA        28.3680   17.4650   29.9580 C.3   183  LEU183      0.1693
     93  C         28.2670   15.9400   29.9250 C.2   183  LEU183      0.2591
     94  O         28.6730   15.3020   28.9560 O.2   183  LEU183     -0.2718
     95  CB        29.5940   17.8890   30.7710 C.3   183  LEU183      0.0284
     96  CG        29.9920   19.3650   30.6600 C.3   183  LEU183      0.0019
     97  CD1       31.1160   19.6710   31.6400 C.3   183  LEU183      0.0001
     98  CD2       30.4180   19.6860   29.2190 C.3   183  LEU183      0.0001
     99  N         27.7220   15.3580   30.9850 N.am  184  ARG184     -0.1980
    100  CA        27.5780   13.9150   31.0570 C.3   184  ARG184      0.1597
    101  C         26.8080   13.4020   29.8420 C.2   184  ARG184      0.2287
    102  O         27.2670   12.5100   29.1280 O.2   184  ARG184     -0.2864
    103  CB        26.8410   13.5230   32.3390 C.3   184  ARG184      0.0334
    104  CG        26.9740   12.0570   32.6870 C.3   184  ARG184      0.0492
    105  CD        25.6390   11.4260   33.0090 C.3   184  ARG184      0.2205
    106  NE        25.0270   11.9430   34.2330 N.pl3 184  ARG184     -0.0865
    107  CZ        23.9610   12.7460   34.2640 C.cat 184  ARG184      0.5346
    108  NH1       23.3720   13.1450   33.1370 N.pl3 184  ARG184      0.1354
    109  NH2       23.4670   13.1380   35.4320 N.pl3 184  ARG184      0.1354
    110  N         28.6730   13.7780   26.6660 N.3   187  GLY187     -0.1210
    111  CA        29.7190   12.7740   26.6420 C.3   187  GLY187      0.1956
    112  C         29.1520   11.4200   26.2710 C.2   187  GLY187      0.2611
    113  O         29.7220   10.7080   25.4460 O.2   187  GLY187     -0.2717
    114  N         28.0250   11.0620   26.8830 N.am  188  LYS188     -0.1979
    115  CA        27.3620    9.7880   26.5940 C.3   188  LYS188      0.1596
    116  C         26.9540    9.7020   25.1220 C.2   188  LYS188      0.2287
    117  O         27.1960    8.6840   24.4530 O.2   188  LYS188     -0.2864
    118  CB        26.0980    9.6230   27.4430 C.3   188  LYS188      0.0298
    119  CG        26.3140    9.4810   28.9390 C.3   188  LYS188      0.0038
    120  CD        24.9100    9.5550   29.4990 C.3   188  LYS188      0.0206
    121  CE        24.4950    8.7620   30.7170 C.3   188  LYS188      0.1093
    122  NZ        23.2400    9.4550   31.2210 N.3   188  LYS188     -0.1314
    123  N         29.9170    9.4280   22.8910 N.3   191  SER191     -0.1217
    124  CA        30.4520    8.0800   22.9580 C.3   191  SER191      0.1889
    125  C         29.5770    7.1260   22.1540 C.2   191  SER191      0.2288
    126  O         30.0820    6.2990   21.3990 O.2   191  SER191     -0.2866
    127  CB        30.5310    7.6030   24.4020 C.3   191  SER191      0.2089
    128  OG        31.0620    6.2870   24.4460 O.3   191  SER191     -0.2183
    129  N         30.5650    4.6710   18.7010 N.3   195  ARG195     -0.1245
    130  CA        30.4150    3.2280   18.6420 C.3   195  ARG195      0.1563
    131  C         29.4450    2.9070   17.5170 C.2   195  ARG195      0.2260
    132  O         29.6800    2.0050   16.7040 O.2   195  ARG195     -0.2867
    133  CB        29.8790    2.7010   19.9720 C.3   195  ARG195      0.0307
    134  CG        30.7660    3.0440   21.1590 C.3   195  ARG195      0.0489
    135  CD        30.4310    2.1900   22.3790 C.3   195  ARG195      0.2205
    136  NE        30.3030    2.9790   23.6050 N.pl3 195  ARG195     -0.0865
    137  CZ        29.1990    3.6350   23.9650 C.cat 195  ARG195      0.5346
    138  NH1       28.1160    3.5970   23.1920 N.pl3 195  ARG195      0.1354
    139  NH2       29.1770    4.3330   25.0980 N.pl3 195  ARG195      0.1354
@<TRIPOS>BOND
     1   132   131    2
     2   131   130    1
     3   130   129    1
     4   130   133    1
     5   133   134    1
     6   134   135    1
     7   126   125    2
     8    51    50    1
     9    51    52    2
    10   125   124    1
    11   135   136    1
    12    50    49    1
    13    50    53    1
    14   123   124    1
    15   124   127    1
    16   138   137    1
    17    58    56   ar
    18    58    59   ar
    19    56    54   ar
    20   136   137    2
    21    60    61    1
    22    59    57   ar
    23   137   139    1
    24    54    53    1
    25    54    55   ar
    26    77    78   ar
    27    77    75   ar
    28   127   128    1
    29   117   116    2
    30    57    55   ar
    31    78    76   ar
    32    75    73   ar
    33   116   115    1
    34    61    64    1
    35    61    62    1
    36   113   112    2
    37    64    65    1
    38    42    41    2
    39    62    63    2
    40    76    74   ar
    41    68    69    1
    42    73    74   ar
    43    73    72    1
    44   112   111    1
    45   112   114   am
    46    41    40    1
    47   115   114    1
    48   115   118    1
    49   111   110    1
    50    69    72    1
    51    69    70    1
    52    65    67    1
    53    65    66    1
    54    43    40    1
    55    43    44    1
    56    40    39    1
    57   118   119    1
    58    45    44   ar
    59    45    47   ar
    60    44    46   ar
    61    70    71    2
    62    47    48   ar
    63    39    30   am
    64   119   120    1
    65    94    93    2
    66   102   101    2
    67    31    30    2
    68    46    48   ar
    69    98    96    1
    70    30    29    1
    71   120   121    1
    72   101   100    1
    73    93    92    1
    74    93    99   am
    75    92    91    1
    76    92    95    1
    77    23    22    2
    78    26    24    1
    79    96    95    1
    80    96    97    1
    81   121   122    1
    82    29    28    1
    83    29    32    1
    84    79    80    1
    85    22    21    1
    86    99   100    1
    87   100   103    1
    88    87    85   ar
    89    87    89   ar
    90    85    84   ar
    91    24    21    1
    92    24    25    1
    93    32    33    1
    94    21    20    1
    95   103   104    1
    96    80    83    1
    97    80    81    1
    98    90    89    1
    99    89    88   ar
   100    84    83    1
   101    84    86   ar
   102   104   105    1
   103    25    27    1
   104   105   106    1
   105   108   107    1
   106    81    82    2
   107    33    34    1
   108    88    86   ar
   109   106   107    2
   110   107   109    1
   111    34    35    1
   112    35    36    2
   113    37    36    1
   114    36    38    1
   115    19    17    1
   116    16    17    1
   117    16    13    1
   118    17    18    1
   119    12    13    1
   120    12     3   am
   121     2     5    1
   122     2     1    1
   123     2     3    1
   124     5     6    1
   125    13    14    1
   126    15    14    2
   127     3     4    2
   128     8     7    1
   129     8     9    2
   130     6     7    1
   131    11     9    1
   132     9    10    1
