@<TRIPOS>MOLECULE
tmp/2bxqA06.pdb
 176 167 0 0 0
SMALL
GASTEIGER

@<TRIPOS>ATOM
      1  N         27.5070    7.8190   19.6230 N.3   193  LYS193     -0.1245
      2  CA        27.6030    8.0560   18.1900 C.3   193  LYS193      0.1561
      3  C         28.8320    7.3760   17.6080 C.2   193  LYS193      0.2260
      4  O         28.7700    6.7850   16.5290 O.2   193  LYS193     -0.2867
      5  CB        27.6790    9.5450   17.8770 C.3   193  LYS193      0.0271
      6  CG        26.4230   10.3390   18.1290 C.3   193  LYS193      0.0035
      7  CD        26.5170   11.6190   17.3260 C.3   193  LYS193      0.0206
      8  CE        25.3750   12.5710   17.6040 C.3   193  LYS193      0.1093
      9  NZ        25.4810   13.7560   16.6980 N.3   193  LYS193     -0.1314
     10  N         28.3580    3.6710   17.4710 N.3   196  LEU196     -0.1231
     11  CA        27.3380    3.4960   16.4530 C.3   196  LEU196      0.1693
     12  C         27.8850    3.5860   15.0300 C.2   196  LEU196      0.2591
     13  O         27.6740    2.6860   14.2170 O.2   196  LEU196     -0.2718
     14  CB        26.2460    4.5460   16.6320 C.3   196  LEU196      0.0284
     15  CG        25.2240    4.5860   15.4920 C.3   196  LEU196      0.0019
     16  CD1       24.5660    3.2100   15.3410 C.3   196  LEU196      0.0001
     17  CD2       24.1900    5.6640   15.7770 C.3   196  LEU196      0.0001
     18  N         28.5800    4.6780   14.7370 N.am  197  LYS197     -0.1980
     19  CA        29.1370    4.8870   13.4100 C.3   197  LYS197      0.1596
     20  C         30.0450    3.7550   12.9550 C.2   197  LYS197      0.2287
     21  O         30.0960    3.4240   11.7730 O.2   197  LYS197     -0.2864
     22  CB        29.8900    6.2160   13.3680 C.3   197  LYS197      0.0298
     23  CG        28.9780    7.4300   13.5760 C.3   197  LYS197      0.0038
     24  CD        29.7690    8.7230   13.7790 C.3   197  LYS197      0.0206
     25  CE        28.8570    9.9000   14.1310 C.3   197  LYS197      0.1093
     26  NZ        29.6260   11.1550   14.4000 N.3   197  LYS197     -0.1314
     27  N         27.7530    0.4880   12.5120 N.3   200  SER200     -0.1202
     28  CA        26.9790    0.6440   11.2900 C.3   200  SER200      0.2020
     29  C         27.8300    0.3260   10.0890 C.2   200  SER200      0.2618
     30  O         27.3710   -0.3190    9.1620 O.2   200  SER200     -0.2717
     31  CB        26.4480    2.0660   11.1690 C.3   200  SER200      0.2103
     32  OG        25.5350    2.3540   12.2140 O.3   200  SER200     -0.2182
     33  N         29.0800    0.7710   10.1100 N.am  201  LEU201     -0.1979
     34  CA        29.9850    0.5170    8.9950 C.3   201  LEU201      0.1596
     35  C         30.2200   -0.9770    8.8090 C.2   201  LEU201      0.2287
     36  O         30.3150   -1.4600    7.6860 O.2   201  LEU201     -0.2864
     37  CB        31.3270    1.2010    9.2300 C.3   201  LEU201      0.0297
     38  CG        31.9710    1.8540    8.0110 C.3   201  LEU201      0.0022
     39  CD1       33.4530    2.0500    8.2830 C.3   201  LEU201      0.0001
     40  CD2       31.7820    0.9930    6.7840 C.3   201  LEU201      0.0001
     41  N         26.1480   -2.6620    7.6140 N.3   204  PHE204     -0.1227
     42  CA        25.7280   -2.1890    6.3040 C.3   204  PHE204      0.1736
     43  C         26.7390   -2.0070    5.2000 C.2   204  PHE204      0.2596
     44  O         26.3580   -1.8940    4.0420 O.2   204  PHE204     -0.2718
     45  CB        24.9360   -0.9110    6.5000 C.3   204  PHE204      0.0547
     46  CG        23.9480   -1.0020    7.6180 C.ar  204  PHE204     -0.0202
     47  CD1       24.0760   -0.1970    8.7410 C.ar  204  PHE204     -0.0042
     48  CD2       22.9050   -1.9280    7.5630 C.ar  204  PHE204     -0.0042
     49  CE1       23.1810   -0.3070    9.8010 C.ar  204  PHE204     -0.0003
     50  CE2       22.0000   -2.0540    8.6110 C.ar  204  PHE204     -0.0003
     51  CZ        22.1360   -1.2410    9.7380 C.ar  204  PHE204     -0.0000
     52  N         28.0190   -1.9660    5.5260 N.am  205  GLY205     -0.1957
     53  CA        28.9980   -1.8270    4.4630 C.3   205  GLY205      0.1869
     54  C         29.3200   -0.4330    3.9660 C.2   205  GLY205      0.2309
     55  O         28.6410    0.5420    4.2640 O.2   205  GLY205     -0.2863
     56  N         26.6070    1.9580    1.8140 N.3   208  ALA208     -0.1231
     57  CA        25.6710    2.6710    2.6660 C.3   208  ALA208      0.1694
     58  C         26.3150    3.8700    3.3550 C.2   208  ALA208      0.2592
     59  O         25.6850    4.9060    3.5380 O.2   208  ALA208     -0.2718
     60  CB        25.0990    1.7290    3.7040 C.3   208  ALA208      0.0304
     61  N         27.5720    3.7280    3.7440 N.am  209  PHE209     -0.1976
     62  CA        28.2580    4.8130    4.4190 C.3   209  PHE209      0.1639
     63  C         28.4710    5.9620    3.4430 C.2   209  PHE209      0.2290
     64  O         28.2040    7.1280    3.7600 O.2   209  PHE209     -0.2864
     65  CB        29.6070    4.3310    4.9640 C.3   209  PHE209      0.0560
     66  CG        30.3950    5.4050    5.6380 C.ar  209  PHE209     -0.0200
     67  CD1       30.2450    5.6420    6.9930 C.ar  209  PHE209     -0.0042
     68  CD2       31.2490    6.2240    4.8980 C.ar  209  PHE209     -0.0042
     69  CE1       30.9340    6.6890    7.6200 C.ar  209  PHE209     -0.0003
     70  CE2       31.9460    7.2780    5.5020 C.ar  209  PHE209     -0.0003
     71  CZ        31.7880    7.5110    6.8710 C.ar  209  PHE209     -0.0000
     72  N         25.1390    7.7760    2.8710 N.3   212  TRP212     -0.1227
     73  CA        24.8410    8.6330    4.0000 C.3   212  TRP212      0.1737
     74  C         25.7180    9.8920    3.9490 C.2   212  TRP212      0.2595
     75  O         25.2240   10.9990    4.1020 O.2   212  TRP212     -0.2718
     76  CB        25.0710    7.8650    5.3080 C.3   212  TRP212      0.0564
     77  CG        24.6890    8.6550    6.5200 C.ar  212  TRP212      0.0003
     78  CD1       25.2950    9.7850    6.9840 C.ar  212  TRP212      0.0946
     79  CD2       23.5800    8.4140    7.3850 C.ar  212  TRP212      0.0152
     80  NE1       24.6380   10.2640    8.0840 N.ar  212  TRP212     -0.2442
     81  CE2       23.5770    9.4440    8.3560 C.ar  212  TRP212      0.0810
     82  CE3       22.5860    7.4310    7.4360 C.ar  212  TRP212      0.0012
     83  CZ2       22.6140    9.5230    9.3720 C.ar  212  TRP212      0.0191
     84  CZ3       21.6210    7.5040    8.4490 C.ar  212  TRP212      0.0001
     85  CH2       21.6470    8.5490    9.4040 C.ar  212  TRP212      0.0015
     86  N         27.0100    9.7260    3.7090 N.am  213  ALA213     -0.1980
     87  CA        27.9190   10.8700    3.6590 C.3   213  ALA213      0.1597
     88  C         27.6560   11.8330    2.5090 C.2   213  ALA213      0.2287
     89  O         27.7850   13.0460    2.6750 O.2   213  ALA213     -0.2864
     90  CB        29.3780   10.3900    3.6120 C.3   213  ALA213      0.0319
     91  N         24.7310   13.9010    3.5620 N.3   216  ARG216     -0.1231
     92  CA        25.1030   14.8220    4.6240 C.3   216  ARG216      0.1694
     93  C         26.0410   15.9100    4.1680 C.2   216  ARG216      0.2591
     94  O         25.8320   17.0670    4.4870 O.2   216  ARG216     -0.2718
     95  CB        25.7380   14.0850    5.8070 C.3   216  ARG216      0.0321
     96  CG        25.8930   14.9650    7.0460 C.3   216  ARG216      0.0489
     97  CD        24.5440   15.5230    7.5200 C.3   216  ARG216      0.2205
     98  NE        24.6790   16.5600    8.5500 N.pl3 216  ARG216     -0.0865
     99  CZ        24.8880   17.8550    8.3040 C.cat 216  ARG216      0.5346
    100  NH1       24.9870   18.2900    7.0560 N.pl3 216  ARG216      0.1354
    101  NH2       24.9950   18.7220    9.3080 N.pl3 216  ARG216      0.1354
    102  N         27.0780   15.5570    3.4210 N.am  217  LEU217     -0.1980
    103  CA        28.0200   16.5780    2.9790 C.3   217  LEU217      0.1596
    104  C         27.4220   17.5440    1.9730 C.2   217  LEU217      0.2287
    105  O         27.8950   18.6710    1.8450 O.2   217  LEU217     -0.2864
    106  CB        29.2900   15.9470    2.3990 C.3   217  LEU217      0.0297
    107  CG        30.2370   15.2760    3.4070 C.3   217  LEU217      0.0022
    108  CD1       31.5740   15.0450    2.7460 C.3   217  LEU217      0.0001
    109  CD2       30.4230   16.1410    4.6280 C.3   217  LEU217      0.0001
    110  N         25.2530   20.2330    3.7990 N.3   220  ARG220     -0.1245
    111  CA        26.1440   21.2060    4.4040 C.3   220  ARG220      0.1563
    112  C         26.9250   22.0840    3.4280 C.2   220  ARG220      0.2260
    113  O         27.1350   23.2650    3.6950 O.2   220  ARG220     -0.2867
    114  CB        27.0910   20.5070    5.3790 C.3   220  ARG220      0.0307
    115  CG        27.3750   21.3560    6.6180 C.3   220  ARG220      0.0489
    116  CD        27.3680   20.5340    7.9120 C.3   220  ARG220      0.2205
    117  NE        28.4490   19.5510    7.9420 N.pl3 220  ARG220     -0.0865
    118  CZ        28.6660   18.7040    8.9450 C.cat 220  ARG220      0.5346
    119  NH1       27.8730   18.7130   10.0170 N.pl3 220  ARG220      0.1354
    120  NH2       29.6740   17.8430    8.8680 N.pl3 220  ARG220      0.1354
    121  N         36.7820   10.6510    3.3520 N.3   236  LEU236     -0.1245
    122  CA        36.0990   10.5040    4.6290 C.3   236  LEU236      0.1561
    123  C         35.8620    9.0400    4.9730 C.2   236  LEU236      0.2260
    124  O         35.8570    8.6620    6.1390 O.2   236  LEU236     -0.2867
    125  CB        34.7660   11.2510    4.6150 C.3   236  LEU236      0.0270
    126  CG        34.0240   11.2130    5.9540 C.3   236  LEU236      0.0019
    127  CD1       34.7940   12.0090    6.9870 C.3   236  LEU236      0.0001
    128  CD2       32.6440   11.7830    5.7990 C.3   236  LEU236      0.0001
    129  N         37.2960    7.1870    8.4390 N.3   240  HIS240     -0.1241
    130  CA        36.4750    6.4770    9.4110 C.3   240  HIS240      0.1621
    131  C         36.7830    4.9960    9.4960 C.2   240  HIS240      0.2264
    132  O         36.7620    4.4170   10.5810 O.2   240  HIS240     -0.2867
    133  CB        34.9960    6.7120    9.1320 C.3   240  HIS240      0.0745
    134  CG        34.4880    7.9610    9.7680 C.ar  240  HIS240      0.0817
    135  ND1       34.4850    8.1350   11.1360 N.ar  240  HIS240     -0.2268
    136  CD2       34.1060    9.1450    9.2360 C.ar  240  HIS240      0.1154
    137  CE1       34.1330    9.3760   11.4180 C.ar  240  HIS240      0.1986
    138  NE2       33.8980   10.0110   10.2820 N.ar  240  HIS240     -0.2212
    139  N         18.9070   12.9410    6.9080 N.3   341  VAL341     -0.1245
    140  CA        19.6980   12.1480    5.9810 C.3   341  VAL341      0.1561
    141  C         18.9800   10.8500    5.5640 C.2   341  VAL341      0.2260
    142  O         18.8690   10.5130    4.3740 O.2   341  VAL341     -0.2867
    143  CB        21.0540   11.7850    6.6160 C.3   341  VAL341      0.0252
    144  CG1       21.7610   10.7230    5.7820 C.3   341  VAL341      0.0019
    145  CG2       21.9130   13.0340    6.7410 C.3   341  VAL341      0.0019
    146  N         16.4920   13.3060   14.0960 N.3   448  GLU448     -0.1231
    147  CA        17.2770   12.2070   13.5760 C.3   448  GLU448      0.1699
    148  C         18.5510   12.0060   14.3560 C.2   448  GLU448      0.2592
    149  O         18.8800   10.8810   14.7360 O.2   448  GLU448     -0.2718
    150  CB        17.6280   12.4440   12.1190 C.3   448  GLU448      0.0402
    151  CG        18.5830   11.4310   11.5770 C.3   448  GLU448      0.1161
    152  CD        19.0050   11.7410   10.1690 C.2   448  GLU448      0.3649
    153  OE1       19.4580   12.8780    9.9250 O.co2 448  GLU448     -0.2457
    154  OE2       18.8930   10.8480    9.3020 O.co2 448  GLU448     -0.2457
    155  N         19.2720   13.0950   14.5910 N.am  449  ASP449     -0.1974
    156  CA        20.5270   13.0060   15.3200 C.3   449  ASP449      0.1709
    157  C         20.3160   12.3770   16.6920 C.2   449  ASP449      0.2293
    158  O         20.9690   11.3940   17.0390 O.2   449  ASP449     -0.2864
    159  CB        21.1700   14.3930   15.4590 C.3   449  ASP449      0.1436
    160  CG        22.6120   14.3250   15.9800 C.2   449  ASP449      0.3671
    161  OD1       23.3970   13.4820   15.4790 O.co2 449  ASP449     -0.2456
    162  OD2       22.9660   15.1190   16.8800 O.co2 449  ASP449     -0.2456
    163  N         18.5920    8.6570   16.7450 N.3   452  SER452     -0.1217
    164  CA        19.4720    7.5610   16.3480 C.3   452  SER452      0.1889
    165  C         20.1760    6.9000   17.5260 C.2   452  SER452      0.2288
    166  O         20.2480    5.6760   17.6210 O.2   452  SER452     -0.2866
    167  CB        20.5200    8.0480   15.3410 C.3   452  SER452      0.2089
    168  OG        21.4990    8.8730   15.9620 O.3   452  SER452     -0.2183
    169  N         18.8880    0.0740    7.8570 N.3   479  LEU479     -0.1245
    170  CA        19.3300    1.3340    8.4450 C.3   479  LEU479      0.1561
    171  C         18.2880    2.4330    8.2360 C.2   479  LEU479      0.2260
    172  O         18.0560    3.2820    9.0920 O.2   479  LEU479     -0.2867
    173  CB        20.6480    1.7520    7.7800 C.3   479  LEU479      0.0270
    174  CG        21.0700    3.2250    7.8040 C.3   479  LEU479      0.0019
    175  CD1       21.3540    3.6550    9.2390 C.3   479  LEU479      0.0001
    176  CD2       22.3000    3.4160    6.9310 C.3   479  LEU479      0.0001
@<TRIPOS>BOND
     1    56    57    1
     2   105   104    2
     3   104   103    1
     4   106   103    1
     5   106   107    1
     6    88    89    2
     7    88    87    1
     8    57    58    1
     9    57    60    1
    10   108   107    1
    11    72    73    1
    12   103   102    1
    13   121   122    1
    14    58    59    2
    15    58    61   am
    16   107   109    1
    17   102    93   am
    18   112   113    2
    19   112   111    1
    20    63    64    2
    21    63    62    1
    22    91    92    1
    23    90    87    1
    24    87    86    1
    25    86    74   am
    26    61    62    1
    27   110   111    1
    28    74    73    1
    29    74    75    2
    30    54    55    2
    31    54    53    1
    32    73    76    1
    33    44    43    2
    34    93    94    2
    35    93    92    1
    36   142   141    2
    37   111   114    1
    38    62    65    1
    39    53    52    1
    40   125   122    1
    41   125   126    1
    42    92    95    1
    43   122   123    1
    44    68    70   ar
    45    68    66   ar
    46    65    66    1
    47   123   124    2
    48    43    52   am
    49    43    42    1
    50    76    77    1
    51   114   115    1
    52    70    71   ar
    53   141   140    1
    54    66    67   ar
    55   144   143    1
    56   128   126    1
    57    95    96    1
    58   126   127    1
    59   140   143    1
    60   140   139    1
    61    42    45    1
    62    42    41    1
    63    45    46    1
    64    77    78   ar
    65    77    79   ar
    66   143   145    1
    67   115   116    1
    68    40    38    1
    69    71    69   ar
    70   176   174    1
    71    78    80   ar
    72    67    69   ar
    73    96    97    1
    74   100    99    1
    75    79    82   ar
    76    79    81   ar
    77    82    84   ar
    78    97    98    1
    79    48    46   ar
    80    48    50   ar
    81    46    47   ar
    82    36    35    2
    83   173   174    1
    84   173   170    1
    85   174   175    1
    86   169   170    1
    87   116   117    1
    88   117   118    2
    89    38    39    1
    90    38    37    1
    91    80    81   ar
    92   171   170    1
    93   171   172    2
    94    99    98    2
    95    99   101    1
    96    81    83   ar
    97   129   130    1
    98    84    85   ar
    99    50    51   ar
   100    47    49   ar
   101    35    34    1
   102   120   118    1
   103   118   119    1
   104    34    37    1
   105    34    33    1
   106   133   130    1
   107   133   134    1
   108    30    29    2
   109   136   134   ar
   110   136   138   ar
   111   154   152   ar
   112    83    85   ar
   113   130   131    1
   114   131   132    2
   115    51    49   ar
   116   134   135   ar
   117   153   152   ar
   118    29    33   am
   119    29    28    1
   120   152   151    1
   121   138   137   ar
   122   135   137   ar
   123    31    28    1
   124    31    32    1
   125    28    27    1
   126   151   150    1
   127    21    20    2
   128   150   147    1
   129    20    19    1
   130    22    19    1
   131    22    23    1
   132    19    18    1
   133   147   146    1
   134   147   148    1
   135    23    24    1
   136    24    25    1
   137    25    26    1
   138    13    12    2
   139   148   155   am
   140   148   149    2
   141   155   156    1
   142    18    12   am
   143    12    11    1
   144   156   159    1
   145   156   157    1
   146    16    15    1
   147   167   168    1
   148   167   164    1
   149   159   160    1
   150   161   160   ar
   151    15    17    1
   152    15    14    1
   153   160   162   ar
   154   164   163    1
   155   164   165    1
   156    11    14    1
   157    11    10    1
   158     4     3    2
   159   157   158    2
   160     9     8    1
   161     7     8    1
   162     7     6    1
   163   165   166    2
   164     3     2    1
   165     5     6    1
   166     5     2    1
   167     2     1    1
