@<TRIPOS>MOLECULE
tmp/2bxqA07.pdb
 145 136 0 0 0
SMALL
GASTEIGER

@<TRIPOS>ATOM
      1  N         28.5800    4.6780   14.7370 N.3   197  LYS197     -0.1245
      2  CA        29.1370    4.8870   13.4100 C.3   197  LYS197      0.1561
      3  C         30.0450    3.7550   12.9550 C.2   197  LYS197      0.2260
      4  O         30.0960    3.4240   11.7730 O.2   197  LYS197     -0.2867
      5  CB        29.8900    6.2160   13.3680 C.3   197  LYS197      0.0271
      6  CG        28.9780    7.4300   13.5760 C.3   197  LYS197      0.0035
      7  CD        29.7690    8.7230   13.7790 C.3   197  LYS197      0.0206
      8  CE        28.8570    9.9000   14.1310 C.3   197  LYS197      0.1093
      9  NZ        29.6260   11.1550   14.4000 N.3   197  LYS197     -0.1314
     10  N         27.5720    3.7280    3.7440 N.3   209  PHE209     -0.1241
     11  CA        28.2580    4.8130    4.4190 C.3   209  PHE209      0.1605
     12  C         28.4710    5.9620    3.4430 C.2   209  PHE209      0.2264
     13  O         28.2040    7.1280    3.7600 O.2   209  PHE209     -0.2867
     14  CB        29.6070    4.3310    4.9640 C.3   209  PHE209      0.0534
     15  CG        30.3950    5.4050    5.6380 C.ar  209  PHE209     -0.0203
     16  CD1       30.2450    5.6420    6.9930 C.ar  209  PHE209     -0.0042
     17  CD2       31.2490    6.2240    4.8980 C.ar  209  PHE209     -0.0042
     18  CE1       30.9340    6.6890    7.6200 C.ar  209  PHE209     -0.0003
     19  CE2       31.9460    7.2780    5.5020 C.ar  209  PHE209     -0.0003
     20  CZ        31.7880    7.5110    6.8710 C.ar  209  PHE209     -0.0000
     21  N         24.7310   13.9010    3.5620 N.3   216  ARG216     -0.1231
     22  CA        25.1030   14.8220    4.6240 C.3   216  ARG216      0.1694
     23  C         26.0410   15.9100    4.1680 C.2   216  ARG216      0.2591
     24  O         25.8320   17.0670    4.4870 O.2   216  ARG216     -0.2718
     25  CB        25.7380   14.0850    5.8070 C.3   216  ARG216      0.0321
     26  CG        25.8930   14.9650    7.0460 C.3   216  ARG216      0.0489
     27  CD        24.5440   15.5230    7.5200 C.3   216  ARG216      0.2205
     28  NE        24.6790   16.5600    8.5500 N.pl3 216  ARG216     -0.0865
     29  CZ        24.8880   17.8550    8.3040 C.cat 216  ARG216      0.5346
     30  NH1       24.9870   18.2900    7.0560 N.pl3 216  ARG216      0.1354
     31  NH2       24.9950   18.7220    9.3080 N.pl3 216  ARG216      0.1354
     32  N         27.0780   15.5570    3.4210 N.am  217  LEU217     -0.1980
     33  CA        28.0200   16.5780    2.9790 C.3   217  LEU217      0.1596
     34  C         27.4220   17.5440    1.9730 C.2   217  LEU217      0.2287
     35  O         27.8950   18.6710    1.8450 O.2   217  LEU217     -0.2864
     36  CB        29.2900   15.9470    2.3990 C.3   217  LEU217      0.0297
     37  CG        30.2370   15.2760    3.4070 C.3   217  LEU217      0.0022
     38  CD1       31.5740   15.0450    2.7460 C.3   217  LEU217      0.0001
     39  CD2       30.4230   16.1410    4.6280 C.3   217  LEU217      0.0001
     40  N         25.2530   20.2330    3.7990 N.3   220  ARG220     -0.1231
     41  CA        26.1440   21.2060    4.4040 C.3   220  ARG220      0.1694
     42  C         26.9250   22.0840    3.4280 C.2   220  ARG220      0.2592
     43  O         27.1350   23.2650    3.6950 O.2   220  ARG220     -0.2718
     44  CB        27.0910   20.5070    5.3790 C.3   220  ARG220      0.0321
     45  CG        27.3750   21.3560    6.6180 C.3   220  ARG220      0.0489
     46  CD        27.3680   20.5340    7.9120 C.3   220  ARG220      0.2205
     47  NE        28.4490   19.5510    7.9420 N.pl3 220  ARG220     -0.0865
     48  CZ        28.6660   18.7040    8.9450 C.cat 220  ARG220      0.5346
     49  NH1       27.8730   18.7130   10.0170 N.pl3 220  ARG220      0.1354
     50  NH2       29.6740   17.8430    8.8680 N.pl3 220  ARG220      0.1354
     51  N         27.3540   21.5220    2.3020 N.am  221  PHE221     -0.1976
     52  CA        28.0890   22.3030    1.3070 C.3   221  PHE221      0.1639
     53  C         27.3320   22.3450   -0.0120 C.2   221  PHE221      0.2290
     54  O         27.8330   21.8910   -1.0370 O.2   221  PHE221     -0.2864
     55  CB        29.4660   21.7050    1.0470 C.3   221  PHE221      0.0560
     56  CG        30.2660   21.4790    2.2770 C.ar  221  PHE221     -0.0200
     57  CD1       30.3350   22.4540    3.2680 C.ar  221  PHE221     -0.0042
     58  CD2       30.9830   20.3000    2.4350 C.ar  221  PHE221     -0.0042
     59  CE1       31.1120   22.2590    4.3970 C.ar  221  PHE221     -0.0003
     60  CE2       31.7640   20.0900    3.5540 C.ar  221  PHE221     -0.0003
     61  CZ        31.8330   21.0720    4.5440 C.ar  221  PHE221     -0.0000
     62  N         35.7140   14.2100   -1.2820 N.3   232  LEU232     -0.1245
     63  CA        35.5670   14.2330    0.1680 C.3   232  LEU232      0.1561
     64  C         34.9530   12.9760    0.7920 C.2   232  LEU232      0.2260
     65  O         35.4230   12.5090    1.8310 O.2   232  LEU232     -0.2867
     66  CB        34.7430   15.4550    0.5710 C.3   232  LEU232      0.0270
     67  CG        35.4020   16.7940    0.2610 C.3   232  LEU232      0.0019
     68  CD1       34.4550   17.9280    0.5850 C.3   232  LEU232      0.0001
     69  CD2       36.6820   16.9160    1.0580 C.3   232  LEU232      0.0001
     70  N         36.7820   10.6510    3.3520 N.3   236  LEU236     -0.1245
     71  CA        36.0990   10.5040    4.6290 C.3   236  LEU236      0.1561
     72  C         35.8620    9.0400    4.9730 C.2   236  LEU236      0.2260
     73  O         35.8570    8.6620    6.1390 O.2   236  LEU236     -0.2867
     74  CB        34.7660   11.2510    4.6150 C.3   236  LEU236      0.0270
     75  CG        34.0240   11.2130    5.9540 C.3   236  LEU236      0.0019
     76  CD1       34.7940   12.0090    6.9870 C.3   236  LEU236      0.0001
     77  CD2       32.6440   11.7830    5.7990 C.3   236  LEU236      0.0001
     78  N         39.2060    7.5390    6.2520 N.3   239  VAL239     -0.1231
     79  CA        39.4090    8.0700    7.5960 C.3   239  VAL239      0.1692
     80  C         38.6030    7.3280    8.6500 C.2   239  VAL239      0.2592
     81  O         39.1700    6.8740    9.6490 O.2   239  VAL239     -0.2718
     82  CB        39.0790    9.5900    7.6490 C.3   239  VAL239      0.0266
     83  CG1       39.2290   10.1270    9.0520 C.3   239  VAL239      0.0020
     84  CG2       40.0170   10.3420    6.7240 C.3   239  VAL239      0.0020
     85  N         37.2960    7.1870    8.4390 N.am  240  HIS240     -0.1976
     86  CA        36.4750    6.4770    9.4110 C.3   240  HIS240      0.1656
     87  C         36.7830    4.9960    9.4960 C.2   240  HIS240      0.2291
     88  O         36.7620    4.4170   10.5810 O.2   240  HIS240     -0.2864
     89  CB        34.9960    6.7120    9.1320 C.3   240  HIS240      0.0771
     90  CG        34.4880    7.9610    9.7680 C.ar  240  HIS240      0.0820
     91  ND1       34.4850    8.1350   11.1360 N.ar  240  HIS240     -0.2267
     92  CD2       34.1060    9.1450    9.2360 C.ar  240  HIS240      0.1154
     93  CE1       34.1330    9.3760   11.4180 C.ar  240  HIS240      0.1986
     94  NE2       33.8980   10.0110   10.2820 N.ar  240  HIS240     -0.2212
     95  N         42.8480   12.3320    9.7960 N.3   255  ARG255     -0.1245
     96  CA        41.9600   13.4590   10.0510 C.3   255  ARG255      0.1563
     97  C         42.6470   14.7960    9.8120 C.2   255  ARG255      0.2260
     98  O         42.0530   15.7200    9.2710 O.2   255  ARG255     -0.2867
     99  CB        41.4340   13.4150   11.4840 C.3   255  ARG255      0.0307
    100  CG        40.4330   12.3140   11.7470 C.3   255  ARG255      0.0489
    101  CD        40.0590   12.2630   13.2030 C.3   255  ARG255      0.2205
    102  NE        39.5180   13.5290   13.6850 N.pl3 255  ARG255     -0.0865
    103  CZ        38.2430   13.8920   13.6010 C.cat 255  ARG255      0.5346
    104  NH1       37.3550   13.0800   13.0470 N.pl3 255  ARG255      0.1354
    105  NH2       37.8540   15.0640   14.0880 N.pl3 255  ARG255      0.1354
    106  N         42.9060   15.4380    6.0330 N.3   258  LEU258     -0.1231
    107  CA        41.6100   15.8210    5.5190 C.3   258  LEU258      0.1693
    108  C         41.2580   17.2610    5.8640 C.2   258  LEU258      0.2591
    109  O         40.7540   18.0060    5.0250 O.2   258  LEU258     -0.2718
    110  CB        40.5310   14.8810    6.0480 C.3   258  LEU258      0.0284
    111  CG        39.1500   15.1220    5.4390 C.3   258  LEU258      0.0019
    112  CD1       39.2920   15.3640    3.9460 C.3   258  LEU258      0.0001
    113  CD2       38.2470   13.9310    5.7170 C.3   258  LEU258      0.0001
    114  N         41.5340   17.6600    7.0920 N.am  259  ALA259     -0.1980
    115  CA        41.2220   19.0100    7.5120 C.3   259  ALA259      0.1597
    116  C         42.0320   20.0490    6.7450 C.2   259  ALA259      0.2287
    117  O         41.5140   21.1160    6.4010 O.2   259  ALA259     -0.2864
    118  CB        41.4610   19.1530    8.9990 C.3   259  ALA259      0.0319
    119  N         40.7590   20.3330    3.1950 N.3   262  ILE262     -0.1245
    120  CA        39.5460   21.1220    3.2320 C.3   262  ILE262      0.1561
    121  C         39.8020   22.6160    3.3270 C.2   262  ILE262      0.2260
    122  O         39.1750   23.3960    2.6100 O.2   262  ILE262     -0.2867
    123  CB        38.6530   20.7050    4.4040 C.3   262  ILE262      0.0252
    124  CG1       38.0150   19.3490    4.1010 C.3   262  ILE262      0.0019
    125  CG2       37.5830   21.7550    4.6540 C.3   262  ILE262      0.0019
    126  CD1       37.2360   18.7700    5.2660 C.3   262  ILE262      0.0001
    127  N         39.5990   19.8610   12.9470 N.3   285  SER285     -0.1217
    128  CA        38.6880   18.7520   12.6880 C.3   285  SER285      0.1889
    129  C         37.3530   18.8830   13.3940 C.2   285  SER285      0.2288
    130  O         36.2920   18.8560   12.7700 O.2   285  SER285     -0.2866
    131  CB        39.3150   17.4350   13.1280 C.3   285  SER285      0.2089
    132  OG        40.2670   16.9860   12.1910 O.3   285  SER285     -0.2183
    133  N         35.1920   21.8390   11.9710 N.3   288  ILE288     -0.1231
    134  CA        34.6420   21.5230   10.6730 C.3   288  ILE288      0.1692
    135  C         33.5000   20.5090   10.7310 C.2   288  ILE288      0.2591
    136  O         32.4700   20.6780   10.0660 O.2   288  ILE288     -0.2718
    137  CB        35.7450   20.9820    9.7510 C.3   288  ILE288      0.0266
    138  CG1       36.8410   22.0430    9.6050 C.3   288  ILE288      0.0019
    139  CG2       35.1500   20.5810    8.3900 C.3   288  ILE288      0.0020
    140  CD1       37.9800   21.6410    8.7100 C.3   288  ILE288      0.0001
    141  N         33.6760   19.4590   11.5230 N.am  289  ALA289     -0.1980
    142  CA        32.6480   18.4420   11.6290 C.3   289  ALA289      0.1597
    143  C         31.3490   19.0230   12.1450 C.2   289  ALA289      0.2287
    144  O         30.2950   18.4250   11.9620 O.2   289  ALA289     -0.2864
    145  CB        33.1080   17.3250   12.5340 C.3   289  ALA289      0.0319
@<TRIPOS>BOND
     1    62    63    1
     2    54    53    2
     3    53    52    1
     4    63    66    1
     5    63    64    1
     6    67    66    1
     7    67    68    1
     8    67    69    1
     9    64    65    2
    10    55    52    1
    11    55    56    1
    12    52    51    1
    13    35    34    2
    14    34    33    1
    15    56    58   ar
    16    56    57   ar
    17    51    42   am
    18    36    33    1
    19    36    37    1
    20    58    60   ar
    21   122   121    2
    22    38    37    1
    23    33    32    1
    24   119   120    1
    25   120   121    1
    26   120   123    1
    27    57    59   ar
    28    70    71    1
    29    37    39    1
    30    32    23   am
    31    42    43    2
    32    42    41    1
    33    12    13    2
    34    12    11    1
    35    60    61   ar
    36    21    22    1
    37    10    11    1
    38    40    41    1
    39   112   111    1
    40   124   123    1
    41   124   126    1
    42    23    24    2
    43    23    22    1
    44    59    61   ar
    45    41    44    1
    46   123   125    1
    47    11    14    1
    48    74    71    1
    49    74    75    1
    50    22    25    1
    51    71    72    1
    52    17    19   ar
    53    17    15   ar
    54    14    15    1
    55    72    73    2
    56   109   108    2
    57    44    45    1
    58   111   113    1
    59   111   110    1
    60    19    20   ar
    61   107   108    1
    62   107   106    1
    63   107   110    1
    64    15    16   ar
    65    77    75    1
    66    25    26    1
    67   108   114   am
    68    75    76    1
    69    78    79    1
    70   117   116    2
    71    45    46    1
    72    84    82    1
    73   116   115    1
    74    20    18   ar
    75    16    18   ar
    76    26    27    1
    77    30    29    1
    78   114   115    1
    79   115   118    1
    80    27    28    1
    81    79    82    1
    82    79    80    1
    83    82    83    1
    84    46    47    1
    85    47    48    2
    86    29    28    2
    87    29    31    1
    88   139   137    1
    89    85    80   am
    90    85    86    1
    91    80    81    2
    92   140   138    1
    93    50    48    1
    94    48    49    1
    95    89    86    1
    96    89    90    1
    97    92    90   ar
    98    92    94   ar
    99    98    97    2
   100    86    87    1
   101    87    88    2
   102   138   137    1
   103   137   134    1
   104    90    91   ar
   105    95    96    1
   106    97    96    1
   107    96    99    1
   108   136   135    2
   109    94    93   ar
   110   134   135    1
   111   134   133    1
   112   135   141   am
   113    91    93   ar
   114    99   100    1
   115   141   142    1
   116   142   143    1
   117   142   145    1
   118   100   101    1
   119     4     3    2
   120   144   143    2
   121   132   131    1
   122   128   127    1
   123   128   131    1
   124   128   129    1
   125   130   129    2
   126     3     2    1
   127   104   103    1
   128   101   102    1
   129     5     2    1
   130     5     6    1
   131     2     1    1
   132     6     7    1
   133   103   102    2
   134   103   105    1
   135     7     8    1
   136     8     9    1
