@<TRIPOS>MOLECULE
tmp/2bxsA01.pdb
 174 165 0 0 0
SMALL
GASTEIGER

@<TRIPOS>ATOM
      1  N         18.7310  133.1210   54.3410 N.3    55  GLY55      -0.1210
      2  CA        19.0280  131.6910   54.3700 C.3    55  GLY55       0.1956
      3  C         17.9930  130.9820   55.2220 C.2    55  GLY55       0.2612
      4  O         16.8010  131.0110   54.9380 O.2    55  GLY55      -0.2717
      5  N         18.4400  130.3770   56.2970 N.am   56  GLY56      -0.1942
      6  CA        17.5530  129.5700   57.1220 C.3    56  GLY56       0.2014
      7  C         16.3460  130.2880   57.6980 C.2    56  GLY56       0.2639
      8  O         16.4590  131.2070   58.4900 O.2    56  GLY56      -0.2714
      9  N         15.1650  129.8330   57.3320 N.am   57  ALA57      -0.1963
     10  CA        13.9940  130.6590   57.5280 C.3    57  ALA57       0.1728
     11  C         12.8330  129.9500   58.2420 C.2    57  ALA57       0.2616
     12  O         12.1850  130.5350   59.1330 O.2    57  ALA57      -0.2715
     13  CB        13.5560  131.1950   56.1770 C.3    57  ALA57       0.0334
     14  N         12.5800  128.6970   57.8790 N.am   58  TYR58      -0.1974
     15  CA        11.3590  128.0850   58.3000 C.3    58  TYR58       0.1639
     16  C         11.4640  126.9290   59.2910 C.2    58  TYR58       0.2290
     17  O         12.0200  125.8820   58.9920 O.2    58  TYR58      -0.2864
     18  CB        10.5850  127.6760   57.0650 C.3    58  TYR58       0.0560
     19  CG        10.4990  128.7780   56.0970 C.ar   58  TYR58      -0.0198
     20  CD1        9.8630  129.9550   56.4190 C.ar   58  TYR58      -0.0009
     21  CD2       11.0530  128.6540   54.8660 C.ar   58  TYR58      -0.0009
     22  CE1        9.7850  130.9990   55.5120 C.ar   58  TYR58       0.0417
     23  CE2       10.9780  129.6770   53.9370 C.ar   58  TYR58       0.0417
     24  CZ        10.3520  130.8500   54.2680 C.ar   58  TYR58       0.1957
     25  OH        10.3120  131.8760   53.3670 O.3    58  TYR58      -0.2866
     26  N         -0.8870  131.2060   55.0840 N.3    82  VAL82      -0.1245
     27  CA        -1.4220  130.3480   54.0390 C.3    82  VAL82       0.1561
     28  C         -2.9400  130.2990   54.1090 C.2    82  VAL82       0.2260
     29  O         -3.5610  129.3500   53.6280 O.2    82  VAL82      -0.2867
     30  CB        -0.8500  128.9290   54.0660 C.3    82  VAL82       0.0252
     31  CG1       -1.1080  128.2630   52.7330 C.3    82  VAL82       0.0019
     32  CG2        0.6620  128.9500   54.3430 C.3    82  VAL82       0.0019
     33  N         -3.8670  128.6210   47.0640 N.3    86  LEU86      -0.1245
     34  CA        -2.5090  128.3600   46.5710 C.3    86  LEU86       0.1561
     35  C         -2.5070  128.2570   45.0490 C.2    86  LEU86       0.2260
     36  O         -3.2830  127.5070   44.4640 O.2    86  LEU86      -0.2867
     37  CB        -1.9260  127.0920   47.1970 C.3    86  LEU86       0.0270
     38  CG        -1.5660  127.2460   48.6730 C.3    86  LEU86       0.0019
     39  CD1       -2.8090  127.3080   49.5400 C.3    86  LEU86       0.0001
     40  CD2       -0.6700  126.1180   49.1310 C.3    86  LEU86       0.0001
     41  N         13.0240  121.4720   44.4940 N.3   164  ILE164     -0.1231
     42  CA        12.5220  122.2780   45.5990 C.3   164  ILE164      0.1692
     43  C         13.1120  121.8490   46.9160 C.2   164  ILE164      0.2592
     44  O         13.3890  122.6960   47.7500 O.2   164  ILE164     -0.2718
     45  CB        11.0140  122.1880   45.6960 C.3   164  ILE164      0.0266
     46  CG1       10.3750  122.9640   44.5670 C.3   164  ILE164      0.0019
     47  CG2       10.5180  122.7180   47.0130 C.3   164  ILE164      0.0020
     48  CD1        8.8420  122.8940   44.5580 C.3   164  ILE164      0.0001
     49  N         13.3120  120.5460   47.0880 N.am  165  ASN165     -0.1974
     50  CA        13.6930  119.9860   48.3860 C.3   165  ASN165      0.1688
     51  C         15.1890  119.8230   48.6790 C.2   165  ASN165      0.2292
     52  O         15.6230  119.9870   49.8320 O.2   165  ASN165     -0.2864
     53  CB        12.9820  118.6810   48.6080 C.3   165  ASN165      0.1181
     54  CG        11.5850  118.8840   49.1300 C.2   165  ASN165      0.2629
     55  OD1       11.4000  119.5590   50.1490 O.2   165  ASN165     -0.2716
     56  ND2       10.5880  118.2890   48.4660 N.am  165  ASN165     -0.0877
     57  N          8.1830  117.1200   55.1240 N.3   191  ILE191     -0.1231
     58  CA         9.0920  117.9410   54.3060 C.3   191  ILE191      0.1692
     59  C          8.3330  118.9910   53.5280 C.2   191  ILE191      0.2592
     60  O          8.6740  120.1730   53.6020 O.2   191  ILE191     -0.2718
     61  CB         9.9900  117.1160   53.3320 C.3   191  ILE191      0.0266
     62  CG1       11.4310  117.5970   53.4030 C.3   191  ILE191      0.0019
     63  CG2        9.5060  117.1790   51.8440 C.3   191  ILE191      0.0020
     64  CD1       12.3430  116.6340   52.7860 C.3   191  ILE191      0.0001
     65  N          7.3030  118.5790   52.7980 N.am  192  PHE192     -0.1962
     66  CA         6.6070  119.5540   51.9970 C.3   192  PHE192      0.1771
     67  C          5.1950  119.7190   52.5270 C.2   192  PHE192      0.2620
     68  O          4.2100  119.6190   51.7810 O.2   192  PHE192     -0.2715
     69  CB         6.6670  119.2160   50.4990 C.3   192  PHE192      0.0574
     70  CG         6.1880  120.3250   49.6130 C.ar  192  PHE192     -0.0200
     71  CD1        7.0150  121.4110   49.3310 C.ar  192  PHE192     -0.0042
     72  CD2        4.8940  120.3000   49.0680 C.ar  192  PHE192     -0.0042
     73  CE1        6.5520  122.4740   48.5040 C.ar  192  PHE192     -0.0003
     74  CE2        4.4220  121.3390   48.2360 C.ar  192  PHE192     -0.0003
     75  CZ         5.2480  122.4280   47.9590 C.ar  192  PHE192     -0.0000
     76  N          5.1350  119.9450   53.8470 N.am  193  SER193     -0.1936
     77  CA         3.9460  120.4340   54.5850 C.3   193  SER193      0.2055
     78  C          3.0330  121.3120   53.7390 C.2   193  SER193      0.2642
     79  O          3.5400  122.0760   52.8760 O.2   193  SER193     -0.2714
     80  CB         4.4020  121.3410   55.7290 C.3   193  SER193      0.2130
     81  OG         4.5590  122.6860   55.2170 O.3   193  SER193     -0.2179
     82  N          1.7210  121.2320   54.0300 N.am  194  VAL194     -0.1977
     83  CA         0.7060  122.2690   53.6480 C.3   194  VAL194      0.1596
     84  C          0.1850  122.2290   52.1980 C.2   194  VAL194      0.2287
     85  O          0.8040  122.7800   51.2620 O.2   194  VAL194     -0.2864
     86  CB         1.1820  123.7180   53.9840 C.3   194  VAL194      0.0276
     87  CG1        0.1630  124.7560   53.5400 C.3   194  VAL194      0.0022
     88  CG2        1.5410  123.8400   55.4630 C.3   194  VAL194      0.0022
     89  N          4.1150  126.4830   58.2590 N.3   200  GLU200     -0.1245
     90  CA         5.4800  126.8870   58.4080 C.3   200  GLU200      0.1567
     91  C          5.5060  128.0940   59.3720 C.2   200  GLU200      0.2260
     92  O          4.5080  128.8210   59.5280 O.2   200  GLU200     -0.2867
     93  CB         6.1900  127.0870   57.0510 C.3   200  GLU200      0.0388
     94  CG         6.2300  125.8280   56.1540 C.3   200  GLU200      0.1160
     95  CD         7.5910  125.0460   56.1780 C.2   200  GLU200      0.3649
     96  OE1        7.8770  124.3080   57.1780 O.co2 200  GLU200     -0.2457
     97  OE2        8.3410  125.1230   55.1530 O.co2 200  GLU200     -0.2457
     98  N          1.5580  132.2190   47.2840 N.3   307  CYS307     -0.1235
     99  CA         2.3350  131.0070   47.3320 C.3   307  CYS307      0.1677
    100  C          1.9300  130.2690   46.0850 C.2   307  CYS307      0.2270
    101  O          0.7400  129.9700   45.8670 O.2   307  CYS307     -0.2867
    102  CB         2.0270  130.2150   48.6140 C.3   307  CYS307      0.0956
    103  SG         2.3950  128.4520   48.5880 S.3   307  CYS307     -0.0801
    104  N          3.2560  127.1880   43.3030 N.3   309  ILE309     -0.1245
    105  CA         4.0940  126.1250   42.8060 C.3   309  ILE309      0.1561
    106  C          4.0340  126.3800   41.3340 C.2   309  ILE309      0.2260
    107  O          2.9430  126.3670   40.7370 O.2   309  ILE309     -0.2867
    108  CB         3.4840  124.7450   43.1290 C.3   309  ILE309      0.0252
    109  CG1        3.7670  124.3610   44.5810 C.3   309  ILE309      0.0019
    110  CG2        4.0080  123.6760   42.1690 C.3   309  ILE309      0.0019
    111  CD1        2.9670  125.1170   45.6200 C.3   309  ILE309      0.0001
    112  N          9.3670  128.0360   43.4890 N.3   319  ILE319     -0.1245
    113  CA         8.3790  128.0880   44.5630 C.3   319  ILE319      0.1561
    114  C          8.3230  129.4330   45.3080 C.2   319  ILE319      0.2260
    115  O          9.2860  130.1870   45.3070 O.2   319  ILE319     -0.2867
    116  CB         8.5340  126.8980   45.5310 C.3   319  ILE319      0.0252
    117  CG1        7.2770  126.7650   46.4090 C.3   319  ILE319      0.0019
    118  CG2        9.7930  127.0610   46.3690 C.3   319  ILE319      0.0019
    119  CD1        6.8160  125.3490   46.6970 C.3   319  ILE319      0.0001
    120  N          6.6690  131.7090   48.8630 N.3   321  LEU321     -0.1245
    121  CA         5.8820  131.9720   50.0580 C.3   321  LEU321      0.1561
    122  C          5.6070  133.4560   50.1850 C.2   321  LEU321      0.2260
    123  O          6.2230  134.2540   49.5020 O.2   321  LEU321     -0.2867
    124  CB         6.5950  131.4540   51.3060 C.3   321  LEU321      0.0270
    125  CG         6.6170  129.9310   51.5250 C.3   321  LEU321      0.0019
    126  CD1        7.5100  129.5010   52.6890 C.3   321  LEU321      0.0001
    127  CD2        5.2350  129.4000   51.7260 C.3   321  LEU321      0.0001
    128  N          8.3470  135.7840   48.7020 N.3   334  MET334     -0.1245
    129  CA         9.6460  135.1470   48.8280 C.3   334  MET334      0.1570
    130  C          9.7270  133.9530   47.9070 C.2   334  MET334      0.2261
    131  O          9.0420  132.9490   48.1060 O.2   334  MET334     -0.2867
    132  CB         9.8290  134.6890   50.2610 C.3   334  MET334      0.0387
    133  CG        11.2360  134.3560   50.6390 C.3   334  MET334      0.0595
    134  SD        11.8760  132.7770   49.9880 S.3   334  MET334     -0.1393
    135  CE        10.6530  131.5570   50.5070 C.3   334  MET334      0.0692
    136  N         12.1490  131.1370   45.1600 N.3   336  PHE336     -0.1241
    137  CA        13.3230  130.3420   45.0410 C.3   336  PHE336      0.1605
    138  C         13.6440  130.1410   43.5940 C.2   336  PHE336      0.2264
    139  O         12.8700  129.6090   42.8190 O.2   336  PHE336     -0.2867
    140  CB        13.1420  129.0120   45.7540 C.3   336  PHE336      0.0534
    141  CG        13.2420  129.1180   47.2420 C.ar  336  PHE336     -0.0203
    142  CD1       14.4300  129.5080   47.8290 C.ar  336  PHE336     -0.0042
    143  CD2       12.1440  128.8350   48.0590 C.ar  336  PHE336     -0.0042
    144  CE1       14.5250  129.6240   49.1940 C.ar  336  PHE336     -0.0003
    145  CE2       12.2360  128.9500   49.4210 C.ar  336  PHE336     -0.0003
    146  CZ        13.4170  129.3430   49.9960 C.ar  336  PHE336     -0.0000
    147  N         20.6220  124.2370   49.9960 N.3   391  TYR391     -0.1241
    148  CA        20.5890  124.1670   51.4380 C.3   391  TYR391      0.1605
    149  C         21.7640  123.3520   51.9790 C.2   391  TYR391      0.2264
    150  O         22.4570  123.7620   52.9060 O.2   391  TYR391     -0.2867
    151  CB        19.2870  123.5270   51.8870 C.3   391  TYR391      0.0534
    152  CG        18.1020  123.9580   51.1030 C.ar  391  TYR391     -0.0201
    153  CD1       17.9860  125.2340   50.6420 C.ar  391  TYR391     -0.0009
    154  CD2       17.0880  123.0840   50.8360 C.ar  391  TYR391     -0.0009
    155  CE1       16.9010  125.6190   49.9410 C.ar  391  TYR391      0.0417
    156  CE2       16.0070  123.4650   50.1250 C.ar  391  TYR391      0.0417
    157  CZ        15.9130  124.7280   49.6770 C.ar  391  TYR391      0.1957
    158  OH        14.7920  125.1010   48.9740 O.3   391  TYR391     -0.2866
    159  N         20.1880  118.7420   57.1720 N.3   427  GLY427     -0.1210
    160  CA        20.0420  119.6800   56.0600 C.3   427  GLY427      0.1956
    161  C         19.4300  120.9840   56.5250 C.2   427  GLY427      0.2611
    162  O         19.7230  122.0210   55.9720 O.2   427  GLY427     -0.2717
    163  N         18.5740  120.9300   57.5420 N.am  428  TYR428     -0.1976
    164  CA        17.9320  122.1120   58.0690 C.3   428  TYR428      0.1639
    165  C         18.6160  122.5390   59.3480 C.2   428  TYR428      0.2290
    166  O         19.4290  121.7980   59.8760 O.2   428  TYR428     -0.2864
    167  CB        16.5040  121.7800   58.4030 C.3   428  TYR428      0.0560
    168  CG        15.6050  121.4040   57.2610 C.ar  428  TYR428     -0.0198
    169  CD1       16.0610  120.7210   56.1410 C.ar  428  TYR428     -0.0009
    170  CD2       14.2560  121.6830   57.3590 C.ar  428  TYR428     -0.0009
    171  CE1       15.1910  120.3680   55.1350 C.ar  428  TYR428      0.0417
    172  CE2       13.3810  121.3410   56.3770 C.ar  428  TYR428      0.0417
    173  CZ        13.8380  120.6860   55.2680 C.ar  428  TYR428      0.1957
    174  OH        12.8690  120.3940   54.3200 O.3   428  TYR428     -0.2866
@<TRIPOS>BOND
     1   107   106    2
     2   106   105    1
     3   110   108    1
     4   105   108    1
     5   105   104    1
     6   139   138    2
     7   108   109    1
     8   112   113    1
     9   138   137    1
    10    36    35    2
    11    41    42    1
    12    48    46    1
    13   113   114    1
    14   113   116    1
    15    46    45    1
    16   109   111    1
    17   137   136    1
    18   137   140    1
    19    35    34    1
    20   115   114    2
    21   116   118    1
    22   116   117    1
    23    42    45    1
    24    42    43    1
    25    45    47    1
    26   140   141    1
    27   101   100    2
    28   100    99    1
    29   117   119    1
    30    34    33    1
    31    34    37    1
    32    43    49   am
    33    43    44    2
    34    49    50    1
    35    37    38    1
    36   141   142   ar
    37   141   143   ar
    38    98    99    1
    39    99   102    1
    40   142   144   ar
    41   130   131    2
    42   130   129    1
    43    75    74   ar
    44    75    73   ar
    45   143   145   ar
    46    74    72   ar
    47    50    53    1
    48    50    51    1
    49    56    54   am
    50    73    71   ar
    51   103   102    1
    52    53    54    1
    53    38    40    1
    54    38    39    1
    55    51    52    2
    56   128   129    1
    57   129   132    1
    58   120   121    1
    59   158   157    1
    60    72    70   ar
    61    54    55    2
    62   144   146   ar
    63    71    70   ar
    64   145   146   ar
    65   123   122    2
    66    70    69    1
    67   157   155   ar
    68   157   156   ar
    69   155   153   ar
    70   134   135    1
    71   134   133    1
    72   147   148    1
    73   121   122    1
    74   121   124    1
    75   156   154   ar
    76   132   133    1
    77    69    66    1
    78   153   152   ar
    79   154   152   ar
    80   152   151    1
    81    85    84    2
    82   124   125    1
    83   148   151    1
    84   148   149    1
    85   125   127    1
    86   125   126    1
    87    68    67    2
    88    63    61    1
    89   149   150    2
    90    66    67    1
    91    66    65    1
    92    84    83    1
    93    67    76   am
    94    31    30    1
    95    64    62    1
    96    65    59   am
    97    79    78    2
    98    61    62    1
    99    61    58    1
   100    25    24    1
   101    59    60    2
   102    59    58    1
   103    87    86    1
   104    29    28    2
   105    83    86    1
   106    83    82    1
   107    78    82   am
   108    78    77    1
   109    76    77    1
   110    23    24   ar
   111    23    21   ar
   112    86    88    1
   113    27    30    1
   114    27    28    1
   115    27    26    1
   116    30    32    1
   117    24    22   ar
   118    58    57    1
   119   174   173    1
   120     1     2    1
   121     2     3    1
   122    77    80    1
   123    21    19   ar
   124     4     3    2
   125   171   173   ar
   126   171   169   ar
   127    97    95   ar
   128    81    80    1
   129     3     5   am
   130   173   172   ar
   131    22    20   ar
   132   162   161    2
   133   160   161    1
   134   160   159    1
   135    19    20   ar
   136    19    18    1
   137   169   168   ar
   138    94    95    1
   139    94    93    1
   140    13    10    1
   141    95    96   ar
   142     5     6    1
   143   172   170   ar
   144   161   163   am
   145    93    90    1
   146    18    15    1
   147     6     7    1
   148   168   170   ar
   149   168   167    1
   150     9    10    1
   151     9     7   am
   152    10    11    1
   153   163   164    1
   154     7     8    2
   155    14    11   am
   156    14    15    1
   157   164   167    1
   158   164   165    1
   159    11    12    2
   160    89    90    1
   161    15    16    1
   162    90    91    1
   163    17    16    2
   164   165   166    2
   165    91    92    2
