@<TRIPOS>MOLECULE
tmp/2bxuA01.pdb
 206 208 0 0 0
SMALL
GASTEIGER

@<TRIPOS>ATOM
      1  N          6.5140   -6.5460   17.2280 N.3    43  HIS43      -0.1241
      2  CA         6.4600   -7.9330   17.6820 C.3    43  HIS43       0.1621
      3  C          7.1840   -8.1470   19.0050 C.2    43  HIS43       0.2264
      4  O          7.3210   -9.2770   19.4730 O.2    43  HIS43      -0.2867
      5  CB         7.0440   -8.8750   16.6270 C.3    43  HIS43       0.0745
      6  CG         8.5280   -8.7710   16.4740 C.ar   43  HIS43       0.0817
      7  ND1        9.1310   -7.8430   15.6550 N.ar   43  HIS43      -0.2268
      8  CD2        9.5310   -9.4810   17.0410 C.ar   43  HIS43       0.1154
      9  CE1       10.4420   -7.9880   15.7220 C.ar   43  HIS43       0.1986
     10  NE2       10.7110   -8.9750   16.5560 N.ar   43  HIS43      -0.2212
     11  N          2.8360  -10.8310   20.2110 N.3    47  TYR47      -0.1241
     12  CA         3.1000  -11.9230   19.2870 C.3    47  TYR47       0.1605
     13  C          2.5080  -13.2220   19.8300 C.2    47  TYR47       0.2264
     14  O          3.2250  -14.0650   20.3780 O.2    47  TYR47      -0.2867
     15  CB         4.6000  -12.0970   19.0630 C.3    47  TYR47       0.0534
     16  CG         4.9120  -13.0000   17.8920 C.ar   47  TYR47      -0.0201
     17  CD1        4.4990  -12.6650   16.6000 C.ar   47  TYR47      -0.0009
     18  CD2        5.6110  -14.1920   18.0690 C.ar   47  TYR47      -0.0009
     19  CE1        4.7770  -13.4960   15.5110 C.ar   47  TYR47       0.0417
     20  CE2        5.8950  -15.0310   16.9870 C.ar   47  TYR47       0.0417
     21  CZ         5.4780  -14.6760   15.7120 C.ar   47  TYR47       0.1957
     22  OH         5.7750  -15.4850   14.6370 O.3    47  TYR47      -0.2866
     23  N          3.8880  -16.9680   20.2060 N.3    50  TRP50      -0.1241
     24  CA         4.8220  -17.2590   21.2910 C.3    50  TRP50       0.1605
     25  C          4.2570  -16.8280   22.6400 C.2    50  TRP50       0.2264
     26  O          4.9830  -16.7350   23.6300 O.2    50  TRP50      -0.2867
     27  CB         6.1630  -16.5590   21.0600 C.3    50  TRP50       0.0550
     28  CG         6.8960  -17.0310   19.8450 C.ar   50  TRP50       0.0003
     29  CD1        6.5960  -18.1170   19.0740 C.ar   50  TRP50       0.0946
     30  CD2        8.0580  -16.4320   19.2580 C.ar   50  TRP50       0.0152
     31  NE1        7.4970  -18.2300   18.0420 N.ar   50  TRP50      -0.2442
     32  CE2        8.4050  -17.2080   18.1310 C.ar   50  TRP50       0.0810
     33  CE3        8.8400  -15.3130   19.5740 C.ar   50  TRP50       0.0012
     34  CZ2        9.5000  -16.9030   17.3180 C.ar   50  TRP50       0.0191
     35  CZ3        9.9280  -15.0100   18.7650 C.ar   50  TRP50       0.0001
     36  CH2       10.2470  -15.8030   17.6500 C.ar   50  TRP50       0.0015
     37  N          0.6190   -9.9170   12.7950 N.3    92  TRP92      -0.1241
     38  CA         1.4280  -10.8670   13.5490 C.3    92  TRP92       0.1605
     39  C          0.9880  -12.2690   13.1650 C.2    92  TRP92       0.2264
     40  O          1.6410  -13.2520   13.5080 O.2    92  TRP92      -0.2867
     41  CB         1.2690  -10.6840   15.0640 C.3    92  TRP92       0.0550
     42  CG        -0.1400  -10.6890   15.5200 C.ar   92  TRP92       0.0003
     43  CD1       -0.9390   -9.5980   15.7210 C.ar   92  TRP92       0.0946
     44  CD2       -0.9550  -11.8370   15.7600 C.ar   92  TRP92       0.0152
     45  NE1       -2.2090   -9.9980   16.0670 N.ar   92  TRP92      -0.2442
     46  CE2       -2.2480  -11.3680   16.0980 C.ar   92  TRP92       0.0810
     47  CE3       -0.7240  -13.2150   15.7210 C.ar   92  TRP92       0.0012
     48  CZ2       -3.3110  -12.2350   16.3930 C.ar   92  TRP92       0.0191
     49  CZ3       -1.7810  -14.0790   16.0150 C.ar   92  TRP92       0.0001
     50  CH2       -3.0590  -13.5810   16.3470 C.ar   92  TRP92       0.0015
     51  N          0.4770  -13.3960    9.8760 N.3    94  GLU94      -0.1231
     52  CA         1.1170  -13.8980    8.6660 C.3    94  GLU94       0.1699
     53  C          2.6120  -13.6170    8.5070 C.2    94  GLU94       0.2592
     54  O          3.4430  -14.4900    8.7650 O.2    94  GLU94      -0.2718
     55  CB         0.3900  -13.3670    7.4300 C.3    94  GLU94       0.0402
     56  CG         0.5830  -14.2310    6.2010 C.3    94  GLU94       0.1161
     57  CD         0.4340  -13.4620    4.9050 C.2    94  GLU94       0.3649
     58  OE1       -0.5030  -12.6420    4.7960 O.co2  94  GLU94      -0.2457
     59  OE2        1.2540  -13.6900    3.9900 O.co2  94  GLU94      -0.2457
     60  N          2.9470  -12.3960    8.0870 N.am   95  ASN95      -0.1960
     61  CA         4.3390  -12.0140    7.8310 C.3    95  ASN95       0.1819
     62  C          4.8730  -10.7910    8.5670 C.2    95  ASN95       0.2621
     63  O          5.8320  -10.1740    8.1060 O.2    95  ASN95      -0.2715
     64  CB         4.5110  -11.7710    6.3360 C.3    95  ASN95       0.1195
     65  CG         3.4640  -10.8190    5.7890 C.2    95  ASN95       0.2630
     66  OD1        2.7010  -10.2140    6.5540 O.2    95  ASN95      -0.2716
     67  ND2        3.4190  -10.6780    4.4680 N.am   95  ASN95      -0.0877
     68  N          4.2680  -10.4350    9.6960 N.am   96  LEU96      -0.1977
     69  CA         4.7080   -9.2690   10.4600 C.3    96  LEU96       0.1596
     70  C          4.6750   -7.9890    9.6210 C.2    96  LEU96       0.2287
     71  O          5.5950   -7.1710    9.6760 O.2    96  LEU96      -0.2864
     72  CB         6.1250   -9.4820   10.9970 C.3    96  LEU96       0.0297
     73  CG         6.2890  -10.4840   12.1360 C.3    96  LEU96       0.0022
     74  CD1        7.7460  -10.5180   12.5780 C.3    96  LEU96       0.0001
     75  CD2        5.3850  -10.0890   13.2920 C.3    96  LEU96       0.0001
     76  N          8.1860  -16.2590    2.6690 N.3   174  ILE174     -0.1245
     77  CA         7.2620  -15.3660    3.3610 C.3   174  ILE174      0.1561
     78  C          6.8780  -14.2130    2.4310 C.2   174  ILE174      0.2260
     79  O          7.6930  -13.7430    1.6380 O.2   174  ILE174     -0.2867
     80  CB         7.9070  -14.7970    4.6580 C.3   174  ILE174      0.0252
     81  CG1        8.2370  -15.9380    5.6280 C.3   174  ILE174      0.0019
     82  CG2        6.9700  -13.8090    5.3280 C.3   174  ILE174      0.0019
     83  CD1        7.0220  -16.6530    6.1880 C.3   174  ILE174      0.0001
     84  N         24.5130   -9.3180   10.3490 N.3   194  ASP194     -0.1225
     85  CA        23.0580   -9.3120   10.3670 C.3   194  ASP194      0.1805
     86  C         22.5770   -9.2280   11.8050 C.2   194  ASP194      0.2598
     87  O         23.3190   -9.5520   12.7310 O.2   194  ASP194     -0.2718
     88  CB        22.5120  -10.5840    9.6910 C.3   194  ASP194      0.1424
     89  CG        20.9880  -10.6930    9.7600 C.2   194  ASP194      0.3668
     90  OD1       20.3050   -9.6460    9.7500 O.co2 194  ASP194     -0.2456
     91  OD2       20.4710  -11.8320    9.8040 O.co2 194  ASP194     -0.2456
     92  N         21.3430   -8.7650   11.9840 N.am  195  ALA195     -0.1966
     93  CA        20.7460   -8.6580   13.3080 C.3   195  ALA195      0.1728
     94  C         20.3980  -10.0770   13.7290 C.2   195  ALA195      0.2616
     95  O         20.5280  -11.0070   12.9390 O.2   195  ALA195     -0.2715
     96  CB        19.4890   -7.7930   13.2530 C.3   195  ALA195      0.0334
     97  N         19.9530  -10.2510   14.9670 N.am  196  CYS196     -0.1954
     98  CA        19.6090  -11.5810   15.4510 C.3   196  CYS196      0.1843
     99  C         18.6930  -11.4630   16.6490 C.2   196  CYS196      0.2625
    100  O         18.4310  -10.3580   17.1200 O.2   196  CYS196     -0.2714
    101  CB        20.8790  -12.3300   15.8420 C.3   196  CYS196      0.0997
    102  SG        20.6600  -14.1090   16.1400 S.3   196  CYS196     -0.0797
    103  N         18.1990  -12.5980   17.1330 N.am  197  GLU197     -0.1977
    104  CA        17.3220  -12.6030   18.2970 C.3   197  GLU197      0.1602
    105  C         17.9420  -11.6580   19.3190 C.2   197  GLU197      0.2287
    106  O         19.1350  -11.7540   19.6090 O.2   197  GLU197     -0.2864
    107  CB        17.2240  -14.0160   18.8860 C.3   197  GLU197      0.0415
    108  CG        15.8550  -14.6810   18.7570 C.3   197  GLU197      0.1163
    109  CD        15.4410  -14.9430   17.3140 C.2   197  GLU197      0.3649
    110  OE1       16.1700  -15.6640   16.5970 O.co2 197  GLU197     -0.2457
    111  OE2       14.3780  -14.4350   16.9010 O.co2 197  GLU197     -0.2457
    112  N         15.8390   -7.2160   17.6970 N.3   200  SER200     -0.1217
    113  CA        14.5200   -6.7260   17.2910 C.3   200  SER200      0.1889
    114  C         14.1900   -5.3780   17.9430 C.2   200  SER200      0.2288
    115  O         14.5010   -5.1540   19.1150 O.2   200  SER200     -0.2866
    116  CB        13.4390   -7.7410   17.6880 C.3   200  SER200      0.2089
    117  OG        13.8840   -9.0790   17.5090 O.3   200  SER200     -0.2183
    118  N         14.4350   -3.0450   12.9460 N.3   220  VAL220     -0.1231
    119  CA        14.7600   -4.4700   12.8690 C.3   220  VAL220      0.1692
    120  C         13.4640   -5.2390   13.0660 C.2   220  VAL220      0.2593
    121  O         12.8140   -5.1040   14.1080 O.2   220  VAL220     -0.2718
    122  CB        15.7560   -4.8810   13.9670 C.3   220  VAL220      0.0266
    123  CG1       16.0900   -6.3710   13.8370 C.3   220  VAL220      0.0020
    124  CG2       17.0170   -4.0270   13.8650 C.3   220  VAL220      0.0020
    125  N         13.0830   -6.0390   12.0720 N.am  221  SER221     -0.1938
    126  CA        11.8310   -6.7820   12.1610 C.3   221  SER221      0.2055
    127  C         11.9540   -8.2940   12.3070 C.2   221  SER221      0.2643
    128  O         11.8170   -8.8230   13.4110 O.2   221  SER221     -0.2714
    129  CB        10.9480   -6.4620   10.9490 C.3   221  SER221      0.2130
    130  OG         9.6150   -6.9100   11.1490 O.3   221  SER221     -0.2179
    131  N         12.2010   -8.9870   11.1960 N.am  222  TRP222     -0.1959
    132  CA        12.3050  -10.4460   11.2200 C.3   222  TRP222      0.1771
    133  C         13.4240  -11.0180   10.3590 C.2   222  TRP222      0.2620
    134  O         14.0810  -10.3010    9.6050 O.2   222  TRP222     -0.2715
    135  CB        10.9840  -11.0760   10.7680 C.3   222  TRP222      0.0590
    136  CG        10.5760  -10.6560    9.3920 C.ar  222  TRP222      0.0006
    137  CD1        9.9300   -9.5050    9.0450 C.ar  222  TRP222      0.0946
    138  CD2       10.8150  -11.3660    8.1700 C.ar  222  TRP222      0.0152
    139  NE1        9.7500   -9.4550    7.6830 N.ar  222  TRP222     -0.2442
    140  CE2       10.2840  -10.5860    7.1220 C.ar  222  TRP222      0.0810
    141  CE3       11.4260  -12.5880    7.8600 C.ar  222  TRP222      0.0012
    142  CZ2       10.3430  -10.9860    5.7850 C.ar  222  TRP222      0.0191
    143  CZ3       11.4860  -12.9880    6.5230 C.ar  222  TRP222      0.0001
    144  CH2       10.9470  -12.1870    5.5060 C.ar  222  TRP222      0.0015
    145  N         13.6140  -12.3290   10.4770 N.am  223  GLY223     -0.1940
    146  CA        14.6420  -13.0100    9.7140 C.3   223  GLY223      0.2014
    147  C         14.5450  -14.5210    9.8250 C.2   223  GLY223      0.2639
    148  O         13.8190  -15.0490   10.6680 O.2   223  GLY223     -0.2714
    149  N         15.2770  -15.2170    8.9620 N.am  224  GLU224     -0.1963
    150  CA        15.2960  -16.6750    8.9510 C.3   224  GLU224      0.1733
    151  C         16.7300  -17.1240    9.2130 C.2   224  GLU224      0.2617
    152  O         17.5220  -17.3080    8.2870 O.2   224  GLU224     -0.2715
    153  CB        14.8180  -17.1890    7.5940 C.3   224  GLU224      0.0429
    154  CG        13.3890  -16.8010    7.2700 C.3   224  GLU224      0.1163
    155  CD        13.0170  -17.0830    5.8270 C.2   224  GLU224      0.3649
    156  OE1       13.6360  -16.4820    4.9220 O.co2 224  GLU224     -0.2457
    157  OE2       12.1030  -17.9040    5.6020 O.co2 224  GLU224     -0.2457
    158  N         17.0530  -17.3030   10.4870 N.am  225  GLY225     -0.1940
    159  CA        18.3990  -17.6880   10.8490 C.3   225  GLY225      0.2014
    160  C         19.1830  -16.4050   11.0200 C.2   225  GLY225      0.2639
    161  O         18.7570  -15.3460   10.5630 O.2   225  GLY225     -0.2714
    162  N         20.3260  -16.4830   11.6820 N.am  226  CYS226     -0.1967
    163  CA        21.1360  -15.3020   11.8950 C.3   226  CYS226      0.1712
    164  C         22.3900  -15.3290   11.0350 C.2   226  CYS226      0.2296
    165  O         23.2610  -16.1860   11.1940 O.2   226  CYS226     -0.2864
    166  CB        21.4770  -15.1760   13.3810 C.3   226  CYS226      0.0983
    167  SG        19.9820  -14.8150   14.3580 S.3   226  CYS226     -0.0798
    168  N         18.7220  -12.7640    4.0920 N.3   232  TYR232     -0.1227
    169  CA        18.8910  -11.3580    4.4110 C.3   232  TYR232      0.1736
    170  C         18.0780  -10.9830    5.6500 C.2   232  TYR232      0.2596
    171  O         17.4980  -11.8460    6.3090 O.2   232  TYR232     -0.2718
    172  CB        18.4650  -10.5180    3.2100 C.3   232  TYR232      0.0548
    173  CG        19.2520  -10.8400    1.9590 C.ar  232  TYR232     -0.0200
    174  CD1       20.5890  -10.4550    1.8330 C.ar  232  TYR232     -0.0009
    175  CD2       18.6690  -11.5440    0.9050 C.ar  232  TYR232     -0.0009
    176  CE1       21.3260  -10.7600    0.6870 C.ar  232  TYR232      0.0417
    177  CE2       19.3940  -11.8550   -0.2430 C.ar  232  TYR232      0.0417
    178  CZ        20.7220  -11.4590   -0.3480 C.ar  232  TYR232      0.1957
    179  OH        21.4410  -11.7500   -1.4900 O.3   232  TYR232     -0.2866
    180  N         18.0510   -9.6970    5.9740 N.am  233  GLY233     -0.1942
    181  CA        17.3030   -9.2480    7.1300 C.3   233  GLY233      0.2014
    182  C         16.2530   -8.2430    6.7140 C.2   233  GLY233      0.2639
    183  O         16.5500   -7.2860    6.0020 O.2   233  GLY233     -0.2714
    184  N         15.0210   -8.4540    7.1570 N.am  234  PHE234     -0.1959
    185  CA        13.9360   -7.5530    6.8110 C.3   234  PHE234      0.1771
    186  C         13.6220   -6.5460    7.9170 C.2   234  PHE234      0.2619
    187  O         13.3890   -6.9080    9.0740 O.2   234  PHE234     -0.2715
    188  CB        12.7040   -8.3740    6.4210 C.3   234  PHE234      0.0574
    189  CG        12.9040   -9.1710    5.1640 C.ar  234  PHE234     -0.0200
    190  CD1       13.8100  -10.2300    5.1320 C.ar  234  PHE234     -0.0042
    191  CD2       12.2590   -8.8100    3.9850 C.ar  234  PHE234     -0.0042
    192  CE1       14.0770  -10.9150    3.9360 C.ar  234  PHE234     -0.0003
    193  CE2       12.5180   -9.4850    2.7870 C.ar  234  PHE234     -0.0003
    194  CZ        13.4290  -10.5370    2.7630 C.ar  234  PHE234     -0.0000
    195  N         13.6350   -5.2700    7.5390 N.am  235  TYR235     -0.1974
    196  CA        13.3790   -4.1730    8.4640 C.3   235  TYR235      0.1639
    197  C         12.1150   -3.4100    8.0910 C.2   235  TYR235      0.2290
    198  O         11.7960   -3.2580    6.9110 O.2   235  TYR235     -0.2864
    199  CB        14.5640   -3.2010    8.4700 C.3   235  TYR235      0.0560
    200  CG        15.9060   -3.8730    8.6700 C.ar  235  TYR235     -0.0198
    201  CD1       16.5010   -4.6100    7.6440 C.ar  235  TYR235     -0.0009
    202  CD2       16.5660   -3.8000    9.8960 C.ar  235  TYR235     -0.0009
    203  CE1       17.7170   -5.2590    7.8360 C.ar  235  TYR235      0.0417
    204  CE2       17.7790   -4.4450   10.0980 C.ar  235  TYR235      0.0417
    205  CZ        18.3490   -5.1740    9.0670 C.ar  235  TYR235      0.1957
    206  OH        19.5450   -5.8310    9.2700 O.3   235  TYR235     -0.2866
@<TRIPOS>BOND
     1   179   178    1
     2   178   177   ar
     3   178   176   ar
     4   177   175   ar
     5   176   174   ar
     6   175   173   ar
     7    79    78    2
     8   174   173   ar
     9   173   172    1
    10    78    77    1
    11    76    77    1
    12   194   193   ar
    13   194   192   ar
    14   193   191   ar
    15   172   169    1
    16    77    80    1
    17   192   190   ar
    18   191   189   ar
    19    59    57   ar
    20   168   169    1
    21   169   170    1
    22    67    65   am
    23    80    82    1
    24    80    81    1
    25    58    57   ar
    26    57    56    1
    27   156   155   ar
    28   190   189   ar
    29   189   188    1
    30   144   142   ar
    31   144   143   ar
    32   157   155   ar
    33    81    83    1
    34   170   180   am
    35   170   171    2
    36   142   140   ar
    37    65    64    1
    38    65    66    2
    39   155   154    1
    40   180   181    1
    41   183   182    2
    42    56    55    1
    43    64    61    1
    44   188   185    1
    45   143   141   ar
    46   182   181    1
    47   182   184   am
    48   185   184    1
    49   185   186    1
    50   198   197    2
    51   140   139   ar
    52   140   138   ar
    53   154   153    1
    54    55    52    1
    55   195   186   am
    56   195   196    1
    57   153   150    1
    58   201   203   ar
    59   201   200   ar
    60   139   137   ar
    61    61    60    1
    62    61    62    1
    63   203   205   ar
    64   141   138   ar
    65   186   187    2
    66    60    53   am
    67   197   196    1
    68    63    62    2
    69   138   136   ar
    70   152   151    2
    71   196   199    1
    72   199   200    1
    73    53    52    1
    74    53    54    2
    75    62    68   am
    76    52    51    1
    77   200   202   ar
    78   150   149    1
    79   150   151    1
    80   149   147   am
    81   137   136   ar
    82   205   206    1
    83   205   204   ar
    84   151   158   am
    85   136   135    1
    86   134   133    2
    87    70    71    2
    88    70    69    1
    89    88    89    1
    90    88    85    1
    91    68    69    1
    92   146   147    1
    93   146   145    1
    94    90    89   ar
    95    89    91   ar
    96   147   148    2
    97   202   204   ar
    98    84    85    1
    99   133   145   am
   100   133   132    1
   101    85    86    1
   102    69    72    1
   103   158   159    1
   104   161   160    2
   105   135   132    1
   106   159   160    1
   107   129   130    1
   108   129   126    1
   109    72    73    1
   110   160   162   am
   111   164   165    2
   112   164   163    1
   113   131   132    1
   114   131   127   am
   115   162   163    1
   116    86    92   am
   117    86    87    2
   118   163   166    1
   119    92    93    1
   120   125   126    1
   121   125   120   am
   122    73    74    1
   123    73    75    1
   124   126   127    1
   125   127   128    2
   126    37    38    1
   127   119   118    1
   128   119   120    1
   129   119   122    1
   130    95    94    2
   131   120   121    2
   132    39    40    2
   133    39    38    1
   134    96    93    1
   135    93    94    1
   136   166   167    1
   137    38    41    1
   138    94    97   am
   139   123   122    1
   140   124   122    1
   141   167   102    1
   142    22    21    1
   143    97    98    1
   144    41    42    1
   145    98   101    1
   146    98    99    1
   147    19    21   ar
   148    19    17   ar
   149    42    43   ar
   150    42    44   ar
   151     7     9   ar
   152     7     6   ar
   153    21    20   ar
   154    43    45   ar
   155    47    44   ar
   156    47    49   ar
   157     9    10   ar
   158    44    46   ar
   159   101   102    1
   160    49    50   ar
   161    45    46   ar
   162    46    48   ar
   163    50    48   ar
   164     6     5    1
   165     6     8   ar
   166    10     8   ar
   167   110   109   ar
   168    17    16   ar
   169     5     2    1
   170    99   100    2
   171    99   103   am
   172   111   109   ar
   173    20    18   ar
   174   103   104    1
   175     1     2    1
   176   113   116    1
   177   113   112    1
   178   113   114    1
   179   109   108    1
   180    34    36   ar
   181    34    32   ar
   182   117   116    1
   183    36    35   ar
   184     2     3    1
   185    16    18   ar
   186    16    15    1
   187   114   115    2
   188    31    32   ar
   189    31    29   ar
   190    32    30   ar
   191   104   107    1
   192   104   105    1
   193   108   107    1
   194    35    33   ar
   195     3     4    2
   196    15    12    1
   197    29    28   ar
   198    30    33   ar
   199    30    28   ar
   200    12    13    1
   201    12    11    1
   202   105   106    2
   203    13    14    2
   204    28    27    1
   205    23    24    1
   206    27    24    1
   207    24    25    1
   208    25    26    2
