@<TRIPOS>MOLECULE
tmp/2bxwA00.pdb
 111 104 0 0 0
SMALL
GASTEIGER

@<TRIPOS>ATOM
      1  N         13.6240   11.8050   20.7210 N.3    46  TYR46      -0.1241
      2  CA        14.1680   12.4060   21.9300 C.3    46  TYR46       0.1605
      3  C         14.5780   13.8400   21.6180 C.2    46  TYR46       0.2264
      4  O         14.6770   14.2120   20.4480 O.2    46  TYR46      -0.2867
      5  CB        15.3410   11.5790   22.4770 C.3    46  TYR46       0.0534
      6  CG        16.5740   11.5700   21.5830 C.ar   46  TYR46      -0.0201
      7  CD1       16.6480   10.7370   20.4710 C.ar   46  TYR46      -0.0009
      8  CD2       17.6630   12.4040   21.8380 C.ar   46  TYR46      -0.0009
      9  CE1       17.7540   10.7260   19.6500 C.ar   46  TYR46       0.0417
     10  CE2       18.7740   12.4070   21.0260 C.ar   46  TYR46       0.0417
     11  CZ        18.8210   11.5650   19.9330 C.ar   46  TYR46       0.1957
     12  OH        19.9330   11.5330   19.1090 O.3    46  TYR46      -0.2866
     13  N         17.5070   16.8490   23.3690 N.3    48  ILE48      -0.1245
     14  CA        18.5580   17.1790   24.3320 C.3    48  ILE48       0.1561
     15  C         18.1730   18.5150   24.9830 C.2    48  ILE48       0.2260
     16  O         17.7670   19.4670   24.3140 O.2    48  ILE48      -0.2867
     17  CB        19.9940   17.2120   23.7390 C.3    48  ILE48       0.0252
     18  CG1       20.3200   15.9000   23.0150 C.3    48  ILE48       0.0019
     19  CG2       21.0290   17.4980   24.8350 C.3    48  ILE48       0.0019
     20  CD1       20.0610   15.9970   21.5180 C.3    48  ILE48       0.0001
     21  N         27.0710   19.3960   18.7080 N.3    66  GLN66      -0.1245
     22  CA        27.2920   17.9720   18.9270 C.3    66  GLN66       0.1566
     23  C         28.0150   17.3690   17.7230 C.2    66  GLN66       0.2260
     24  O         27.5730   17.5010   16.5770 O.2    66  GLN66      -0.2867
     25  CB        25.9940   17.2170   19.2260 C.3    66  GLN66       0.0367
     26  CG        25.5120   17.3800   20.6550 C.3    66  GLN66       0.0905
     27  CD        24.3190   16.5380   21.0530 C.2    66  GLN66       0.2608
     28  OE1       23.7560   15.7770   20.2480 O.2    66  GLN66      -0.2717
     29  NE2       23.9290   16.6740   22.3140 N.am   66  GLN66      -0.0878
     30  N         29.3000   13.6750   16.5790 N.3    68  THR68      -0.1218
     31  CA        28.9740   12.2910   16.8980 C.3    68  THR68       0.1862
     32  C         29.9620   11.3760   16.1740 C.2    68  THR68       0.2287
     33  O         30.2210   11.5300   14.9700 O.2    68  THR68      -0.2866
     34  CB        27.4830   11.9710   16.5810 C.3    68  THR68       0.1770
     35  OG1       26.6220   12.9370   17.2110 O.3    68  THR68      -0.2211
     36  CG2       27.1100   10.5930   17.0990 C.3    68  THR68       0.0375
     37  N         28.4740   12.5080   12.2660 N.3    76  ASP76      -0.1239
     38  CA        27.4910   13.5740   12.2110 C.3    76  ASP76       0.1674
     39  C         27.9540   14.8440   12.9340 C.2    76  ASP76       0.2266
     40  O         28.5750   14.7750   13.9920 O.2    76  ASP76      -0.2867
     41  CB        26.1550   13.0800   12.7950 C.3    76  ASP76       0.1410
     42  CG        25.0610   14.1360   12.6710 C.2    76  ASP76       0.3668
     43  OD1       24.6950   14.7480   13.6910 O.co2  76  ASP76      -0.2456
     44  OD2       24.5860   14.4400   11.5600 O.co2  76  ASP76      -0.2456
     45  N         25.9570   18.3490   14.1630 N.3    78  THR78      -0.1218
     46  CA        24.6930   19.0260   14.3860 C.3    78  THR78       0.1862
     47  C         24.9680   20.2420   15.2800 C.2    78  THR78       0.2287
     48  O         25.6220   20.1540   16.3210 O.2    78  THR78      -0.2866
     49  CB        23.6210   18.0660   14.9610 C.3    78  THR78       0.1770
     50  OG1       23.3120   17.0460   14.0080 O.3    78  THR78      -0.2211
     51  CG2       22.3020   18.7620   15.1880 C.3    78  THR78       0.0375
     52  N         22.8130   23.7090   17.0000 N.3    80  TYR80      -0.1241
     53  CA        21.5420   24.3570   17.2700 C.3    80  TYR80       0.1605
     54  C         21.7770   25.7740   17.7590 C.2    80  TYR80       0.2264
     55  O         22.6430   25.9980   18.6090 O.2    80  TYR80      -0.2867
     56  CB        20.8380   23.5920   18.3920 C.3    80  TYR80       0.0534
     57  CG        20.8190   22.0910   18.2650 C.ar   80  TYR80      -0.0201
     58  CD1       19.7890   21.4580   17.5740 C.ar   80  TYR80      -0.0009
     59  CD2       21.8350   21.3030   18.8210 C.ar   80  TYR80      -0.0009
     60  CE1       19.7600   20.0610   17.4620 C.ar   80  TYR80       0.0417
     61  CE2       21.8180   19.9130   18.7080 C.ar   80  TYR80       0.0417
     62  CZ        20.7690   19.3010   18.0340 C.ar   80  TYR80       0.1957
     63  OH        20.6960   17.9340   17.8920 O.3    80  TYR80      -0.2866
     64  N         14.9160   14.7290   17.8200 N.3    99  GLU99      -0.1231
     65  CA        15.8810   13.8810   17.1370 C.3    99  GLU99       0.1699
     66  C         15.2350   12.5050   17.2410 C.2    99  GLU99       0.2592
     67  O         14.3110   12.2890   18.0350 O.2    99  GLU99      -0.2718
     68  CB        17.2670   13.9430   17.7890 C.3    99  GLU99       0.0402
     69  CG        17.9400   15.3060   17.7690 C.3    99  GLU99       0.1161
     70  CD        18.3310   15.7970   16.3710 C.2    99  GLU99       0.3649
     71  OE1       18.8170   16.9400   16.3280 O.co2  99  GLU99      -0.2457
     72  OE2       18.1790   15.1250   15.3190 O.co2  99  GLU99      -0.2457
     73  N         15.7260   11.6070   16.4000 N.am  100  GLU100     -0.1979
     74  CA        15.3470   10.2060   16.4500 C.3   100  GLU100      0.1602
     75  C         16.5460    9.2680   16.5010 C.2   100  GLU100      0.2287
     76  O         17.4310    9.3930   15.6530 O.2   100  GLU100     -0.2864
     77  CB        14.6450    9.8000   15.1640 C.3   100  GLU100      0.0415
     78  CG        13.2230   10.2080   15.0250 C.3   100  GLU100      0.1163
     79  CD        12.5840    9.5200   13.8400 C.2   100  GLU100      0.3649
     80  OE1       11.6080   10.1040   13.3280 O.co2 100  GLU100     -0.2457
     81  OE2       13.0270    8.4210   13.4430 O.co2 100  GLU100     -0.2457
     82  N         29.7240   11.2100   21.9060 N.3   113  ILE113     -0.1245
     83  CA        29.3080   12.5700   21.5410 C.3   113  ILE113      0.1561
     84  C         30.2130   13.6120   22.1930 C.2   113  ILE113      0.2260
     85  O         30.3740   13.5950   23.4070 O.2   113  ILE113     -0.2867
     86  CB        27.8100   12.8170   21.8230 C.3   113  ILE113      0.0252
     87  CG1       27.0080   11.8300   20.9670 C.3   113  ILE113      0.0019
     88  CG2       27.4180   14.2610   21.5040 C.3   113  ILE113      0.0019
     89  CD1       25.6050   11.6050   21.4440 C.3   113  ILE113      0.0001
     90  N         30.3410   12.4880   26.1100 N.3   130  TRP130     -0.1241
     91  CA        29.4260   11.5040   26.6890 C.3   130  TRP130      0.1605
     92  C         29.1000   10.4240   25.6540 C.2   130  TRP130      0.2264
     93  O         29.5090   10.5160   24.4970 O.2   130  TRP130     -0.2867
     94  CB        28.1860   12.1920   27.2700 C.3   130  TRP130      0.0550
     95  CG        27.4140   12.9970   26.2970 C.ar  130  TRP130      0.0003
     96  CD1       27.7400   14.2210   25.8170 C.ar  130  TRP130      0.0946
     97  CD2       26.1640   12.6420   25.6970 C.ar  130  TRP130      0.0152
     98  NE1       26.7740   14.6480   24.9450 N.ar  130  TRP130     -0.2442
     99  CE2       25.7960   13.7030   24.8460 C.ar  130  TRP130      0.0810
    100  CE3       25.3240   11.5220   25.7810 C.ar  130  TRP130      0.0012
    101  CZ2       24.6210   13.6950   24.0910 C.ar  130  TRP130      0.0191
    102  CZ3       24.1640   11.5060   25.0150 C.ar  130  TRP130      0.0001
    103  CH2       23.8230   12.5820   24.1890 C.ar  130  TRP130      0.0015
    104  N         26.1390    7.6310   23.9950 N.3   132  LEU132     -0.1245
    105  CA        24.7870    7.2050   23.6850 C.3   132  LEU132      0.1561
    106  C         24.7680    5.8040   23.0850 C.2   132  LEU132      0.2260
    107  O         25.3390    5.5820   22.0070 O.2   132  LEU132     -0.2867
    108  CB        24.1880    8.1600   22.6570 C.3   132  LEU132      0.0270
    109  CG        22.7830    7.9170   22.1200 C.3   132  LEU132      0.0019
    110  CD1       21.8060    7.8130   23.2760 C.3   132  LEU132      0.0001
    111  CD2       22.4390    9.0340   21.1300 C.3   132  LEU132      0.0001
@<TRIPOS>BOND
     1    44    42   ar
     2    38    37    1
     3    38    41    1
     4    38    39    1
     5    42    41    1
     6    42    43   ar
     7    39    40    2
     8    80    79   ar
     9    81    79   ar
    10    79    78    1
    11    50    49    1
    12    45    46    1
    13    46    49    1
    14    46    47    1
    15    49    51    1
    16    33    32    2
    17    78    77    1
    18    77    74    1
    19    47    48    2
    20    72    70   ar
    21    76    75    2
    22    32    31    1
    23    71    70   ar
    24    70    69    1
    25    73    74    1
    26    73    66   am
    27    74    75    1
    28    24    23    2
    29    30    31    1
    30    34    31    1
    31    34    36    1
    32    34    35    1
    33    52    53    1
    34    65    66    1
    35    65    68    1
    36    65    64    1
    37    66    67    2
    38    53    54    1
    39    53    56    1
    40    60    58   ar
    41    60    62   ar
    42    58    57   ar
    43    23    22    1
    44    54    55    2
    45    69    68    1
    46    63    62    1
    47    62    61   ar
    48    57    56    1
    49    57    59   ar
    50    21    22    1
    51    61    59   ar
    52    22    25    1
    53    12    11    1
    54    25    26    1
    55     9    11   ar
    56     9     7   ar
    57    11    10   ar
    58    28    27    2
    59     4     3    2
    60     7     6   ar
    61    26    27    1
    62     1     2    1
    63    87    89    1
    64    87    86    1
    65    10     8   ar
    66    27    29   am
    67   111   109    1
    68    88    86    1
    69    20    18    1
    70    83    86    1
    71    83    82    1
    72    83    84    1
    73     6     8   ar
    74     6     5    1
    75     3     2    1
    76     2     5    1
    77   107   106    2
    78   109   108    1
    79   109   110    1
    80    84    85    2
    81   108   105    1
    82    18    17    1
    83   106   105    1
    84    13    14    1
    85   105   104    1
    86    17    14    1
    87    17    19    1
    88   101   103   ar
    89   101    99   ar
    90   103   102   ar
    91    16    15    2
    92    14    15    1
    93    93    92    2
    94    99    98   ar
    95    99    97   ar
    96    98    96   ar
    97   102   100   ar
    98    92    91    1
    99    97   100   ar
   100    97    95   ar
   101    96    95   ar
   102    90    91    1
   103    95    94    1
   104    91    94    1
