@<TRIPOS>MOLECULE
tmp/2bybB01.pdb
 132 128 0 0 0
SMALL
GASTEIGER

@<TRIPOS>ATOM
      1  N         24.6250  120.0710   15.9810 N.3    55  GLY55      -0.1210
      2  CA        24.7260  121.5280   15.8400 C.3    55  GLY55       0.1956
      3  C         23.3960  122.1850   15.5320 C.2    55  GLY55       0.2612
      4  O         22.3870  121.8180   16.1130 O.2    55  GLY55      -0.2717
      5  N         23.3960  123.1920   14.6520 N.am   56  GLY56      -0.1942
      6  CA        22.1190  123.7900   14.1840 C.3    56  GLY56       0.2014
      7  C         21.0610  122.7310   13.8740 C.2    56  GLY56       0.2640
      8  O         21.3540  121.7130   13.2290 O.2    56  GLY56      -0.2714
      9  N         19.8210  123.0140   14.3030 N.am   57  SER57      -0.1935
     10  CA        18.7070  122.0630   14.3320 C.3    57  SER57       0.2055
     11  C         17.3160  122.6720   14.1200 C.2    57  SER57       0.2643
     12  O         16.6130  122.2610   13.2250 O.2    57  SER57      -0.2714
     13  CB        18.6900  121.3280   15.6680 C.3    57  SER57       0.2130
     14  OG        17.8320  120.1890   15.6030 O.3    57  SER57      -0.2179
     15  N         16.9230  123.6210   14.9770 N.am   58  TYR58      -0.1973
     16  CA        15.5270  124.1760   15.0340 C.3    58  TYR58       0.1639
     17  C         15.1360  125.0970   13.8910 C.2    58  TYR58       0.2290
     18  O         15.9270  125.9150   13.4980 O.2    58  TYR58      -0.2864
     19  CB        15.2610  124.8700   16.3990 C.3    58  TYR58       0.0560
     20  CG        15.3410  123.8430   17.4950 C.ar   58  TYR58      -0.0198
     21  CD1       16.4270  123.7600   18.3930 C.ar   58  TYR58      -0.0009
     22  CD2       14.3670  122.8980   17.5880 C.ar   58  TYR58      -0.0009
     23  CE1       16.4610  122.6880   19.3590 C.ar   58  TYR58       0.0417
     24  CE2       14.4110  121.8860   18.5070 C.ar   58  TYR58       0.0417
     25  CZ        15.4150  121.7860   19.3770 C.ar   58  TYR58       0.1957
     26  OH        15.2660  120.7040   20.2180 O.3    58  TYR58      -0.2866
     27  N         18.3850  134.6160   29.5010 N.3   166  PHE166     -0.1241
     28  CA        17.8760  134.8680   28.1460 C.3   166  PHE166      0.1605
     29  C         19.0380  135.1840   27.1810 C.2   166  PHE166      0.2264
     30  O         19.1860  134.5220   26.1400 O.2   166  PHE166     -0.2867
     31  CB        16.8490  136.0190   28.1920 C.3   166  PHE166      0.0534
     32  CG        16.4960  136.6320   26.8450 C.ar  166  PHE166     -0.0203
     33  CD1       15.7790  135.9390   25.8620 C.ar  166  PHE166     -0.0042
     34  CD2       16.8290  137.9710   26.5950 C.ar  166  PHE166     -0.0042
     35  CE1       15.4260  136.5850   24.6360 C.ar  166  PHE166     -0.0003
     36  CE2       16.4640  138.6070   25.4070 C.ar  166  PHE166     -0.0003
     37  CZ        15.7870  137.9440   24.4430 C.ar  166  PHE166     -0.0000
     38  N         21.3850  132.0160   26.6640 N.3   169  LEU169     -0.1231
     39  CA        20.8000  131.0380   25.7570 C.3   169  LEU169      0.1693
     40  C         20.6850  131.4660   24.2740 C.2   169  LEU169      0.2592
     41  O         20.8560  130.6380   23.3600 O.2   169  LEU169     -0.2718
     42  CB        19.4440  130.6380   26.3400 C.3   169  LEU169      0.0284
     43  CG        18.6710  129.3760   25.9930 C.3   169  LEU169      0.0019
     44  CD1       19.4550  128.0600   26.1440 C.3   169  LEU169      0.0001
     45  CD2       17.4170  129.4400   26.8830 C.3   169  LEU169      0.0001
     46  N         20.3630  132.7330   24.0570 N.am  170  CYS170     -0.1970
     47  CA        20.3220  133.3900   22.7400 C.3   170  CYS170      0.1712
     48  C         21.6710  133.4180   22.0220 C.2   170  CYS170      0.2296
     49  O         21.8000  132.9400   20.8770 O.2   170  CYS170     -0.2864
     50  CB        19.8650  134.8780   22.8910 C.3   170  CYS170      0.0983
     51  SG        18.0960  135.1960   22.7580 S.3   170  CYS170     -0.0798
     52  N         11.6930  134.7360   19.1810 N.3   196  ILE196     -0.1231
     53  CA        12.9880  134.1530   19.4040 C.3   196  ILE196      0.1692
     54  C         12.9330  133.1300   20.5060 C.2   196  ILE196      0.2591
     55  O         13.5350  132.0830   20.3750 O.2   196  ILE196     -0.2718
     56  CB        14.0190  135.2690   19.6740 C.3   196  ILE196      0.0266
     57  CG1       15.3050  135.0370   18.8770 C.3   196  ILE196      0.0019
     58  CG2       14.2480  135.4210   21.1260 C.3   196  ILE196      0.0020
     59  CD1       16.5150  135.9090   19.3180 C.3   196  ILE196      0.0001
     60  N         12.1520  133.3830   21.5570 N.am  197  ILE197     -0.1980
     61  CA        12.1610  132.4980   22.6990 C.3   197  ILE197      0.1595
     62  C         11.1760  131.3210   22.4800 C.2   197  ILE197      0.2287
     63  O         11.2420  130.3870   23.2300 O.2   197  ILE197     -0.2864
     64  CB        11.7710  133.1910   24.0370 C.3   197  ILE197      0.0276
     65  CG1       10.2510  133.4120   24.0930 C.3   197  ILE197      0.0022
     66  CG2       12.5290  134.5000   24.2310 C.3   197  ILE197      0.0022
     67  CD1        9.6890  133.7620   25.4800 C.3   197  ILE197      0.0001
     68  N         11.9430  127.7480   17.7930 N.3   204  GLN204     -0.1245
     69  CA        12.0960  126.2610   18.1160 C.3   204  GLN204      0.1566
     70  C         10.9540  125.4090   17.7390 C.2   204  GLN204      0.2260
     71  O         10.7240  124.3180   18.3160 O.2   204  GLN204     -0.2867
     72  CB        12.4510  126.0230   19.5850 C.3   204  GLN204      0.0367
     73  CG        13.8210  126.6400   19.9820 C.3   204  GLN204      0.0905
     74  CD        13.9070  128.1650   19.7960 C.2   204  GLN204      0.2608
     75  OE1       14.7190  128.6830   18.9580 O.2   204  GLN204     -0.2717
     76  NE2       13.1200  128.9050   20.5900 N.am  204  GLN204     -0.0878
     77  N         26.3930  120.9080   23.0080 N.3   294  LYS294     -0.1245
     78  CA        25.0270  120.4660   22.8810 C.3   294  LYS294      0.1561
     79  C         24.9690  119.0100   23.3520 C.2   294  LYS294      0.2260
     80  O         25.7070  118.1590   22.8670 O.2   294  LYS294     -0.2867
     81  CB        24.5460  120.6190   21.4240 C.3   294  LYS294      0.0271
     82  CG        23.1690  120.1170   21.1650 C.3   294  LYS294      0.0035
     83  CD        22.7620  120.3610   19.7240 C.3   294  LYS294      0.0206
     84  CE        21.3030  120.0880   19.5590 C.3   294  LYS294      0.1093
     85  NZ        20.5560  121.1780   18.8330 N.3   294  LYS294     -0.1314
     86  N         18.3420  125.2270   30.0300 N.3   324  TYR324     -0.1241
     87  CA        17.1780  125.0730   29.1310 C.3   324  TYR324      0.1605
     88  C         17.2330  123.7210   28.4350 C.2   324  TYR324      0.2264
     89  O         18.3120  123.2960   27.9880 O.2   324  TYR324     -0.2867
     90  CB        17.2190  126.2160   28.0830 C.3   324  TYR324      0.0534
     91  CG        16.0490  126.3050   27.1260 C.ar  324  TYR324     -0.0201
     92  CD1       14.8640  126.8750   27.5280 C.ar  324  TYR324     -0.0009
     93  CD2       16.1610  125.8830   25.7980 C.ar  324  TYR324     -0.0009
     94  CE1       13.7610  126.9630   26.6590 C.ar  324  TYR324      0.0417
     95  CE2       15.0810  125.9620   24.9200 C.ar  324  TYR324      0.0417
     96  CZ        13.8930  126.5100   25.3570 C.ar  324  TYR324      0.1957
     97  OH        12.8350  126.6130   24.4860 O.3   324  TYR324     -0.2866
     98  N         21.7730  122.5430   26.4530 N.3   341  PHE341     -0.1241
     99  CA        22.9400  123.3020   25.9790 C.3   341  PHE341      0.1605
    100  C         23.7980  123.6690   27.1570 C.2   341  PHE341      0.2264
    101  O         23.2890  124.2250   28.1160 O.2   341  PHE341     -0.2867
    102  CB        22.4860  124.6190   25.3080 C.3   341  PHE341      0.0534
    103  CG        21.8880  124.4320   23.9230 C.ar  341  PHE341     -0.0203
    104  CD1       20.6780  125.0120   23.5840 C.ar  341  PHE341     -0.0042
    105  CD2       22.5600  123.6910   22.9470 C.ar  341  PHE341     -0.0042
    106  CE1       20.1470  124.8330   22.3060 C.ar  341  PHE341     -0.0003
    107  CE2       22.0110  123.4950   21.6590 C.ar  341  PHE341     -0.0003
    108  CZ        20.8340  124.0990   21.3340 C.ar  341  PHE341     -0.0000
    109  N         26.6240  129.3740   18.9990 N.3   396  TYR396     -0.1241
    110  CA        25.9110  129.3010   17.7160 C.3   396  TYR396      0.1605
    111  C         26.5280  130.1850   16.6370 C.2   396  TYR396      0.2264
    112  O         26.6150  129.7590   15.4690 O.2   396  TYR396     -0.2867
    113  CB        24.4370  129.7280   17.8750 C.3   396  TYR396      0.0534
    114  CG        23.7260  129.2460   19.1440 C.ar  396  TYR396     -0.0201
    115  CD1       23.9410  127.9650   19.6670 C.ar  396  TYR396     -0.0009
    116  CD2       22.8610  130.1190   19.8430 C.ar  396  TYR396     -0.0009
    117  CE1       23.3220  127.5810   20.8510 C.ar  396  TYR396      0.0417
    118  CE2       22.2810  129.7760   20.9920 C.ar  396  TYR396      0.0417
    119  CZ        22.4730  128.4780   21.4930 C.ar  396  TYR396      0.1957
    120  OH        21.8400  128.1100   22.6710 O.3   396  TYR396     -0.2866
    121  N         21.2770  132.0640   12.5310 N.3   433  TYR433     -0.1241
    122  CA        20.5060  130.8570   12.2530 C.3   433  TYR433      0.1605
    123  C         20.7870  130.1890   10.8880 C.2   433  TYR433      0.2264
    124  O         21.5540  130.6930   10.0820 O.2   433  TYR433     -0.2867
    125  CB        18.9600  131.1160   12.3920 C.3   433  TYR433      0.0534
    126  CG        18.5680  131.5290   13.8060 C.ar  433  TYR433     -0.0201
    127  CD1       18.8280  132.8160   14.2820 C.ar  433  TYR433     -0.0009
    128  CD2       18.0240  130.6410   14.6580 C.ar  433  TYR433     -0.0009
    129  CE1       18.4940  133.1870   15.5970 C.ar  433  TYR433      0.0417
    130  CE2       17.7000  130.9910   15.9570 C.ar  433  TYR433      0.0417
    131  CZ        17.9420  132.2490   16.4180 C.ar  433  TYR433      0.1957
    132  OH        17.6040  132.5820   17.6910 O.3   433  TYR433     -0.2866
@<TRIPOS>BOND
     1   124   123    2
     2   123   122    1
     3   122   125    1
     4   122   121    1
     5   125   126    1
     6    12    11    2
     7     8     7    2
     8    18    17    2
     9   126   127   ar
    10   126   128   ar
    11     7     6    1
    12     7     9   am
    13    17    16    1
    14    11    10    1
    15    11    15   am
    16     6     5    1
    17   127   129   ar
    18     9    10    1
    19    10    13    1
    20     5     3   am
    21   128   130   ar
    22    15    16    1
    23    16    19    1
    24   112   111    2
    25     3     2    1
    26     3     4    2
    27   129   131   ar
    28    14    13    1
    29     2     1    1
    30   130   131   ar
    31    19    20    1
    32   131   132    1
    33   111   110    1
    34    20    22   ar
    35    20    21   ar
    36    22    24   ar
    37   110   113    1
    38   110   109    1
    39    70    69    1
    40    70    71    2
    41    68    69    1
    42   113   114    1
    43    69    72    1
    44    21    23   ar
    45    24    25   ar
    46    85    84    1
    47    57    59    1
    48    57    56    1
    49    75    74    2
    50   114   115   ar
    51   114   116   ar
    52    52    53    1
    53    23    25   ar
    54    25    26    1
    55    53    56    1
    56    53    54    1
    57    84    83    1
    58    72    73    1
    59   115   117   ar
    60    56    58    1
    61    83    82    1
    62    74    73    1
    63    74    76   am
    64   116   118   ar
    65    55    54    2
    66    54    60   am
    67   117   119   ar
    68    49    48    2
    69   118   119   ar
    70    82    81    1
    71   108   107   ar
    72   108   106   ar
    73    81    78    1
    74   119   120    1
    75    60    61    1
    76   107   105   ar
    77    48    47    1
    78   106   104   ar
    79    62    61    1
    80    62    63    2
    81    61    64    1
    82    47    50    1
    83    47    46    1
    84    51    50    1
    85    80    79    2
    86    78    77    1
    87    78    79    1
    88   105   103   ar
    89    41    40    2
    90   104   103   ar
    91   103   102    1
    92    64    65    1
    93    64    66    1
    94    46    40   am
    95    65    67    1
    96    40    39    1
    97    37    35   ar
    98    37    36   ar
    99    97    96    1
   100    35    33   ar
   101    95    96   ar
   102    95    93   ar
   103   102    99    1
   104    96    94   ar
   105    36    34   ar
   106    39    42    1
   107    39    38    1
   108    93    91   ar
   109    33    32   ar
   110    99    98    1
   111    99   100    1
   112    43    44    1
   113    43    42    1
   114    43    45    1
   115    30    29    2
   116    34    32   ar
   117    94    92   ar
   118    32    31    1
   119    91    92   ar
   120    91    90    1
   121   100   101    2
   122    29    28    1
   123    89    88    2
   124    90    87    1
   125    28    31    1
   126    28    27    1
   127    88    87    1
   128    87    86    1
