@<TRIPOS>MOLECULE
tmp/2bycA00.pdb
 139 130 0 0 0
SMALL
GASTEIGER

@<TRIPOS>ATOM
      1  N          2.1800   27.7110   11.3240 N.3    10  TYR10      -0.1241
      2  CA         3.1920   26.8190   10.8240 C.3    10  TYR10       0.1605
      3  C          3.4150   25.7440   11.8800 C.2    10  TYR10       0.2264
      4  O          3.0300   25.8680   13.0170 O.2    10  TYR10      -0.2867
      5  CB         4.5120   27.6100   10.4780 C.3    10  TYR10       0.0534
      6  CG         5.2150   28.0400   11.7290 C.ar   10  TYR10      -0.0201
      7  CD1        5.9040   27.1100   12.4840 C.ar   10  TYR10      -0.0009
      8  CD2        5.2250   29.3830   12.1450 C.ar   10  TYR10      -0.0009
      9  CE1        6.5100   27.4710   13.6480 C.ar   10  TYR10       0.0417
     10  CE2        5.8580   29.7580   13.3240 C.ar   10  TYR10       0.0417
     11  CZ         6.5200   28.8020   14.0390 C.ar   10  TYR10       0.1957
     12  OH         7.1540   29.0650   15.2140 O.3    10  TYR10      -0.2866
     13  N         12.2800   31.9770   24.6360 N.3    26  ILE26      -0.1245
     14  CA        11.4010   32.2560   23.5250 C.3    26  ILE26       0.1561
     15  C         10.2680   33.0990   23.9940 C.2    26  ILE26       0.2260
     16  O          9.8350   33.9560   23.2670 O.2    26  ILE26      -0.2867
     17  CB        10.8710   30.9940   22.8730 C.3    26  ILE26       0.0252
     18  CG1       12.0380   30.2800   22.1620 C.3    26  ILE26       0.0019
     19  CG2        9.7060   31.3670   22.0010 C.3    26  ILE26       0.0019
     20  CD1       11.7410   28.9240   21.6490 C.3    26  ILE26       0.0001
     21  N         11.5160   36.7760   24.7940 N.3    29  ALA29      -0.1231
     22  CA        11.7530   37.4190   23.5150 C.3    29  ALA29       0.1694
     23  C         10.5150   37.8470   22.7920 C.2    29  ALA29       0.2592
     24  O         10.4530   38.9510   22.3190 O.2    29  ALA29      -0.2718
     25  CB        12.5700   36.5050   22.6060 C.3    29  ALA29       0.0304
     26  N          9.5250   36.9520   22.7190 N.am   30  SER30      -0.1952
     27  CA         8.3740   37.1290   21.9030 C.3    30  SER30       0.1924
     28  C          7.4000   38.1120   22.5400 C.2    30  SER30       0.2314
     29  O          6.7760   38.9060   21.8580 O.2    30  SER30      -0.2863
     30  CB         7.6910   35.7920   21.7140 C.3    30  SER30       0.2116
     31  OG         7.1310   35.4770   22.9320 O.3    30  SER30      -0.2180
     32  N          8.9330   41.6560   21.4720 N.3    33  ARG33      -0.1231
     33  CA         8.8500   41.7780   20.0100 C.3    33  ARG33       0.1694
     34  C          7.4240   41.8060   19.5090 C.2    33  ARG33       0.2592
     35  O          6.9950   42.7340   18.7920 O.2    33  ARG33      -0.2718
     36  CB         9.5780   40.5800   19.3800 C.3    33  ARG33       0.0321
     37  CG         9.7050   40.5420   17.8730 C.3    33  ARG33       0.0489
     38  CD        10.9370   41.3050   17.4520 C.3    33  ARG33       0.2205
     39  NE        12.1530   40.5140   17.1930 N.pl3  33  ARG33      -0.0865
     40  CZ        12.9370   39.9330   18.0800 C.cat  33  ARG33       0.5346
     41  NH1       12.6570   39.9340   19.3540 N.pl3  33  ARG33       0.1354
     42  NH2       13.9980   39.2940   17.6690 N.pl3  33  ARG33       0.1354
     43  N          6.6270   40.8150   19.8890 N.am   34  ASN34      -0.1974
     44  CA         5.2490   40.8180   19.3620 C.3    34  ASN34       0.1688
     45  C          4.4620   42.0820   19.7410 C.2    34  ASN34       0.2292
     46  O          3.6900   42.6550   18.9570 O.2    34  ASN34      -0.2864
     47  CB         4.4850   39.5520   19.7900 C.3    34  ASN34       0.1181
     48  CG         5.0540   38.3300   19.1800 C.2    34  ASN34       0.2629
     49  OD1        6.0170   38.3890   18.4510 O.2    34  ASN34      -0.2716
     50  ND2        4.4760   37.2040   19.4720 N.am   34  ASN34      -0.0877
     51  N          1.3790   29.6350   20.7930 N.3    43  LEU43      -0.1245
     52  CA         2.3480   28.6360   20.4680 C.3    43  LEU43       0.1561
     53  C          2.0140   27.3580   21.1610 C.2    43  LEU43       0.2260
     54  O          1.8470   27.3110   22.3920 O.2    43  LEU43      -0.2867
     55  CB         3.6290   29.1280   20.9930 C.3    43  LEU43       0.0270
     56  CG         4.9310   28.3210   20.9010 C.3    43  LEU43       0.0019
     57  CD1        5.2570   27.9840   19.4670 C.3    43  LEU43       0.0001
     58  CD2        6.0620   29.0350   21.6260 C.3    43  LEU43       0.0001
     59  N          6.2450   22.1450   17.3980 N.3    50  PHE50      -0.1241
     60  CA         5.5220   23.4060   17.7920 C.3    50  PHE50       0.1605
     61  C          4.5450   23.6310   16.6940 C.2    50  PHE50       0.2264
     62  O          4.8120   23.2950   15.5180 O.2    50  PHE50      -0.2867
     63  CB         6.4980   24.5550   17.6510 C.3    50  PHE50       0.0534
     64  CG         7.5300   24.6540   18.7330 C.ar   50  PHE50      -0.0203
     65  CD1        8.9040   24.6030   18.4330 C.ar   50  PHE50      -0.0042
     66  CD2        7.1670   24.8160   20.0510 C.ar   50  PHE50      -0.0042
     67  CE1        9.8730   24.7650   19.4690 C.ar   50  PHE50      -0.0003
     68  CE2        8.1220   24.9430   21.0540 C.ar   50  PHE50      -0.0003
     69  CZ         9.4900   24.9330   20.7300 C.ar   50  PHE50      -0.0000
     70  N          2.6030   27.1130   15.7060 N.3    52  GLN52      -0.1245
     71  CA         2.4900   28.5220   16.0660 C.3    52  GLN52       0.1566
     72  C          1.5180   29.2560   15.1460 C.2    52  GLN52       0.2260
     73  O          1.5370   29.0450   13.9560 O.2    52  GLN52      -0.2867
     74  CB         3.8690   29.2090   16.1590 C.3    52  GLN52       0.0367
     75  CG         3.6880   30.5490   16.7820 C.3    52  GLN52       0.0905
     76  CD         4.9760   31.2910   16.9340 C.2    52  GLN52       0.2608
     77  OE1        5.9090   31.1640   16.1370 O.2    52  GLN52      -0.2717
     78  NE2        5.0350   32.0770   17.9630 N.am   52  GLN52      -0.0878
     79  N          8.3630   38.5520   11.0660 N.3    64  LEU64      -0.1245
     80  CA         8.4870   37.7140   12.1970 C.3    64  LEU64       0.1561
     81  C          8.7670   36.3250   11.7290 C.2    64  LEU64       0.2260
     82  O          9.6440   35.6630   12.2570 O.2    64  LEU64      -0.2867
     83  CB         7.2250   37.7910   13.0650 C.3    64  LEU64       0.0270
     84  CG         7.4280   37.0500   14.4000 C.3    64  LEU64       0.0019
     85  CD1        8.7030   37.4680   15.3020 C.3    64  LEU64       0.0001
     86  CD2        6.1710   36.9810   15.2370 C.3    64  LEU64       0.0001
     87  N         12.2880   35.7740   10.9210 N.3    67  LEU67      -0.1231
     88  CA        13.1550   35.6240   12.1000 C.3    67  LEU67       0.1693
     89  C         13.0080   34.2730   12.7450 C.2    67  LEU67       0.2591
     90  O         13.9780   33.5880   13.0340 O.2    67  LEU67      -0.2718
     91  CB        12.7730   36.6820   13.1100 C.3    67  LEU67       0.0284
     92  CG        13.6540   37.8910   12.8980 C.3    67  LEU67       0.0019
     93  CD1       13.0560   39.1440   13.5710 C.3    67  LEU67       0.0001
     94  CD2       15.1320   37.5280   13.3730 C.3    67  LEU67       0.0001
     95  N         11.7750   33.8810   12.9660 N.am   68  ILE68      -0.1980
     96  CA        11.4590   32.6170   13.5880 C.3    68  ILE68       0.1595
     97  C         11.9910   31.4090   12.7580 C.2    68  ILE68       0.2287
     98  O         12.3740   30.3710   13.3050 O.2    68  ILE68      -0.2864
     99  CB         9.9330   32.5270   13.7950 C.3    68  ILE68       0.0276
    100  CG1        9.3850   33.5900   14.7860 C.3    68  ILE68       0.0022
    101  CG2        9.5810   31.2370   14.3500 C.3    68  ILE68       0.0022
    102  CD1        7.8760   33.5550   14.7980 C.3    68  ILE68       0.0001
    103  N         15.5230   30.5140   13.3640 N.3    71  ASP71      -0.1239
    104  CA        15.7860   29.9850   14.6970 C.3    71  ASP71       0.1674
    105  C         16.1970   28.5010   14.7850 C.2    71  ASP71       0.2266
    106  O         15.5260   27.5930   14.2990 O.2    71  ASP71      -0.2867
    107  CB        14.6560   30.3700   15.6370 C.3    71  ASP71       0.1410
    108  CG        15.0200   30.1600   17.1040 C.2    71  ASP71       0.3668
    109  OD1       15.6070   29.1250   17.4350 O.co2  71  ASP71      -0.2456
    110  OD2       14.7180   31.0220   17.9420 O.co2  71  ASP71      -0.2456
    111  N         16.1480   26.4280   17.1370 N.3    73  ARG73      -0.1231
    112  CA        15.5270   25.6000   18.1610 C.3    73  ARG73       0.1694
    113  C         14.3540   24.8360   17.6020 C.2    73  ARG73       0.2592
    114  O         13.6010   24.1890   18.3590 O.2    73  ARG73      -0.2718
    115  CB        15.1650   26.4430   19.3860 C.3    73  ARG73       0.0321
    116  CG        16.4080   27.0830   20.0920 C.3    73  ARG73       0.0489
    117  CD        15.9970   28.0590   21.1420 C.3    73  ARG73       0.2205
    118  NE        15.7370   29.3470   20.5310 N.pl3  73  ARG73      -0.0865
    119  CZ        15.4150   30.4420   21.1960 C.cat  73  ARG73       0.5346
    120  NH1       15.3220   30.4390   22.5420 N.pl3  73  ARG73       0.1354
    121  NH2       15.1280   31.5410   20.5140 N.pl3  73  ARG73       0.1354
    122  N         14.1730   24.9030   16.2840 N.am   74  HIS74      -0.1976
    123  CA        13.1760   24.0370   15.5990 C.3    74  HIS74       0.1656
    124  C         13.5860   23.7980   14.1740 C.2    74  HIS74       0.2291
    125  O         14.3470   24.5660   13.6680 O.2    74  HIS74      -0.2864
    126  CB        11.7230   24.5780   15.6690 C.3    74  HIS74       0.0771
    127  CG        11.5000   25.9430   15.0660 C.ar   74  HIS74       0.0820
    128  ND1       10.2310   26.4570   14.8770 N.ar   74  HIS74      -0.2267
    129  CD2       12.3470   26.9070   14.6400 C.ar   74  HIS74       0.1154
    130  CE1       10.3060   27.6800   14.3760 C.ar   74  HIS74       0.1986
    131  NE2       11.5760   27.9800   14.2210 N.ar   74  HIS74      -0.2212
    132  N          1.8830   36.3360   22.8350 N.3    95  MET95      -0.1245
    133  CA         2.1680   34.9200   22.4960 C.3    95  MET95       0.1570
    134  C          1.6770   34.2230   23.7580 C.2    95  MET95       0.2261
    135  O          2.0510   34.5830   24.8240 O.2    95  MET95      -0.2867
    136  CB         3.6620   34.7130   22.1840 C.3    95  MET95       0.0387
    137  CG         4.0540   33.4210   21.4210 C.3    95  MET95       0.0595
    138  SD         2.6960   32.9220   20.4000 S.3    95  MET95      -0.1393
    139  CE         2.6260   34.2360   19.1460 C.3    95  MET95       0.0692
@<TRIPOS>BOND
     1     5     2    1
     2     5     6    1
     3     2     1    1
     4     2     3    1
     5    87    88    1
     6    79    80    1
     7     6     8   ar
     8     6     7   ar
     9    81    80    1
    10    81    82    2
    11     3     4    2
    12    88    89    1
    13    88    91    1
    14     8    10   ar
    15    80    83    1
    16     7     9   ar
    17    89    95   am
    18    89    90    2
    19    97    98    2
    20    97    96    1
    21    92    91    1
    22    92    94    1
    23    92    93    1
    24    95    96    1
    25    83    84    1
    26    10    11   ar
    27   103   104    1
    28    96    99    1
    29     9    11   ar
    30   125   124    2
    31    99   101    1
    32    99   100    1
    33    73    72    2
    34    11    12    1
    35   124   123    1
    36   131   130   ar
    37   131   129   ar
    38   106   105    2
    39   130   128   ar
    40    84    86    1
    41    84    85    1
    42   129   127   ar
    43   104   105    1
    44   104   107    1
    45   100   102    1
    46   128   127   ar
    47   127   126    1
    48    72    71    1
    49    62    61    2
    50   123   126    1
    51   123   122    1
    52   107   108    1
    53    70    71    1
    54    71    74    1
    55    77    76    2
    56    74    75    1
    57   122   113   am
    58    61    60    1
    59    75    76    1
    60    76    78   am
    61   108   109   ar
    62   108   110   ar
    63   111   112    1
    64    39    38    1
    65    39    40    2
    66    59    60    1
    67    38    37    1
    68   113   112    1
    69   113   114    2
    70    63    60    1
    71    63    64    1
    72    42    40    1
    73    37    36    1
    74    40    41    1
    75   112   115    1
    76    65    64   ar
    77    65    67   ar
    78    49    48    2
    79    64    66   ar
    80    35    34    2
    81    46    45    2
    82   139   138    1
    83    48    50   am
    84    48    47    1
    85    44    45    1
    86    44    47    1
    87    44    43    1
    88    36    33    1
    89   115   116    1
    90    57    56    1
    91    67    69   ar
    92    34    43   am
    93    34    33    1
    94    33    32    1
    95    66    68   ar
    96   116   117    1
    97   138   137    1
    98    52    51    1
    99    52    55    1
   100    52    53    1
   101   121   119    1
   102   118   117    1
   103   118   119    2
   104    69    68   ar
   105    56    55    1
   106    56    58    1
   107    53    54    2
   108   119   120    1
   109   137   136    1
   110    20    18    1
   111    30    27    1
   112    30    31    1
   113    29    28    2
   114    27    28    1
   115    27    26    1
   116    19    17    1
   117    18    17    1
   118   136   133    1
   119    24    23    2
   120   133   132    1
   121   133   134    1
   122    25    22    1
   123    26    23   am
   124    23    22    1
   125    17    14    1
   126    16    15    2
   127    22    21    1
   128    14    15    1
   129    14    13    1
   130   134   135    2
