@<TRIPOS>MOLECULE
tmp/2byhA00.pdb
 156 145 0 0 0
SMALL
GASTEIGER

@<TRIPOS>ATOM
      1  N         13.0210    2.0820    6.1730 N.3    38  LEU38      -0.1245
      2  CA        12.7650    2.6510    7.5060 C.3    38  LEU38       0.1561
      3  C         12.5610    4.1760    7.4580 C.2    38  LEU38       0.2260
      4  O         11.6270    4.6990    8.0410 O.2    38  LEU38      -0.2867
      5  CB        13.8930    2.3220    8.5050 C.3    38  LEU38       0.0270
      6  CG        13.9660    0.8780    9.0300 C.3    38  LEU38       0.0019
      7  CD1       15.3790    0.5010    9.2850 C.3    38  LEU38       0.0001
      8  CD2       13.2070    0.7680   10.3170 C.3    38  LEU38       0.0001
      9  N          9.2200    4.9380    5.7880 N.3    41  ASN41      -0.1225
     10  CA         8.1150    4.7520    6.7570 C.3    41  ASN41       0.1785
     11  C          7.9990    5.9120    7.7900 C.2    41  ASN41       0.2597
     12  O          6.9030    6.3820    8.1010 O.2    41  ASN41      -0.2718
     13  CB         8.2400    3.4120    7.4610 C.3    41  ASN41       0.1169
     14  CG         8.0940    2.2240    6.5050 C.2    41  ASN41       0.2627
     15  OD1        7.4810    2.3280    5.4480 O.2    41  ASN41      -0.2716
     16  ND2        8.6130    1.1060    6.9080 N.am   41  ASN41      -0.0877
     17  N          9.1210    6.3710    8.3250 N.am   42  SER42      -0.1952
     18  CA         9.1290    7.5230    9.2220 C.3    42  SER42       0.1924
     19  C          8.5700    8.7740    8.5300 C.2    42  SER42       0.2314
     20  O          7.7140    9.4770    9.0750 O.2    42  SER42      -0.2863
     21  CB        10.5610    7.7970    9.7070 C.3    42  SER42       0.2116
     22  OG        11.0150    6.7450   10.5270 O.3    42  SER42      -0.2180
     23  N          4.8150    8.6380    8.3000 N.3    45  ALA45      -0.1245
     24  CA         4.1810    8.9030    9.5800 C.3    45  ALA45       0.1562
     25  C          4.2770   10.3780    9.9920 C.2    45  ALA45       0.2260
     26  O          3.3610   10.9010   10.6300 O.2    45  ALA45      -0.2867
     27  CB         4.7590    8.0050   10.7060 C.3    45  ALA45       0.0290
     28  N          1.5910   12.1820    8.1670 N.3    48  LYS48      -0.1245
     29  CA         0.2760   12.0040    8.7800 C.3    48  LYS48       0.1561
     30  C          0.0230   12.9680    9.9430 C.2    48  LYS48       0.2260
     31  O         -1.0250   13.6340    9.9520 O.2    48  LYS48      -0.2867
     32  CB         0.0550   10.5550    9.1990 C.3    48  LYS48       0.0271
     33  CG        -0.3050    9.6790    8.0000 C.3    48  LYS48       0.0035
     34  CD        -0.6200    8.2230    8.3550 C.3    48  LYS48       0.0206
     35  CE        -1.3610    7.5420    7.1970 C.3    48  LYS48       0.1093
     36  NZ        -1.6340    6.1120    7.4850 N.3    48  LYS48      -0.1314
     37  N         11.4470    8.4600   14.9260 N.3    83  ASP83      -0.1239
     38  CA        10.7310    9.5920   14.3440 C.3    83  ASP83       0.1674
     39  C          9.7010   10.1140   15.3250 C.2    83  ASP83       0.2266
     40  O          9.3420    9.4190   16.2900 O.2    83  ASP83      -0.2867
     41  CB        10.1050    9.2150   12.9850 C.3    83  ASP83       0.1410
     42  CG         8.9820    8.1560   13.0920 C.2    83  ASP83       0.3668
     43  OD1        7.9100    8.4260   13.7130 O.co2  83  ASP83      -0.2456
     44  OD2        9.0540    7.0470   12.5220 O.co2  83  ASP83      -0.2456
     45  N          3.1830   10.1100   13.5870 N.3    86  ILE86      -0.1231
     46  CA         1.8740    9.9660   14.2240 C.3    86  ILE86       0.1692
     47  C          1.8290    8.7930   15.2240 C.2    86  ILE86       0.2593
     48  O          1.0190    8.7780   16.1380 O.2    86  ILE86      -0.2718
     49  CB         0.7680    9.8710   13.1340 C.3    86  ILE86       0.0266
     50  CG1       -0.5950   10.1690   13.7780 C.3    86  ILE86       0.0019
     51  CG2        0.7880    8.5190   12.4520 C.3    86  ILE86       0.0020
     52  CD1       -1.6550   10.5350   12.8120 C.3    86  ILE86       0.0001
     53  N          2.7210    7.8240   15.0620 N.am   87  GLY87      -0.1942
     54  CA         2.7730    6.6630   15.9340 C.3    87  GLY87       0.2014
     55  C          1.6870    5.6390   15.6290 C.2    87  GLY87       0.2638
     56  O          0.8720    5.7900   14.7220 O.2    87  GLY87      -0.2714
     57  N          1.6640    4.5970   16.4430 N.am   88  MET88      -0.1976
     58  CA         0.7630    3.4790   16.2450 C.3    88  MET88       0.1605
     59  C          0.0480    3.1530   17.5510 C.2    88  MET88       0.2287
     60  O          0.6530    3.1160   18.6430 O.2    88  MET88      -0.2864
     61  CB         1.5150    2.2210   15.7190 C.3    88  MET88       0.0413
     62  CG         2.1080    2.3920   14.3330 C.3    88  MET88       0.0598
     63  SD         3.0320    0.9350   13.7460 S.3    88  MET88      -0.1393
     64  CE         4.5540    1.2630   14.5260 C.3    88  MET88       0.0692
     65  N         -3.0070   -0.8610   15.7430 N.3    92  ASP92      -0.1239
     66  CA        -2.1500   -0.6040   14.5850 C.3    92  ASP92       0.1674
     67  C         -0.9440   -1.5550   14.5280 C.2    92  ASP92       0.2266
     68  O         -0.6240   -2.0800   13.4690 O.2    92  ASP92      -0.2867
     69  CB        -1.6450    0.8390   14.5520 C.3    92  ASP92       0.1410
     70  CG        -2.7380    1.8640   14.2820 C.2    92  ASP92       0.3668
     71  OD1       -3.8190    1.5240   13.7480 O.co2  92  ASP92      -0.2456
     72  OD2       -2.5860    3.0580   14.5890 O.co2  92  ASP92      -0.2456
     73  N         -0.9320   -3.9830   11.5600 N.3    96  ASN96      -0.1225
     74  CA        -0.0660   -3.4850   10.4830 C.3    96  ASN96       0.1785
     75  C          1.2700   -4.2100   10.4790 C.2    96  ASN96       0.2597
     76  O          1.9200   -4.2840    9.4410 O.2    96  ASN96      -0.2718
     77  CB         0.2230   -1.9820   10.5940 C.3    96  ASN96       0.1169
     78  CG        -1.0140   -1.0780   10.4190 C.2    96  ASN96       0.2627
     79  OD1       -2.0590   -1.5220   10.0030 O.2    96  ASN96      -0.2716
     80  ND2       -0.8460    0.2350   10.7150 N.am   96  ASN96      -0.0877
     81  N          1.7040   -4.6930   11.6450 N.am   97  LEU97      -0.1980
     82  CA         2.9960   -5.3960   11.7750 C.3    97  LEU97       0.1596
     83  C          2.8510   -6.8750   12.1330 C.2    97  LEU97       0.2287
     84  O          3.6360   -7.4160   12.9250 O.2    97  LEU97      -0.2864
     85  CB         3.9320   -4.6960   12.7590 C.3    97  LEU97       0.0297
     86  CG         4.3380   -3.2450   12.4260 C.3    97  LEU97       0.0022
     87  CD1        5.3840   -2.7720   13.4300 C.3    97  LEU97       0.0001
     88  CD2        4.9050   -3.1190   11.0300 C.3    97  LEU97       0.0001
     89  N         -1.3480   -8.9360    3.8790 N.3   102  LYS102     -0.1245
     90  CA        -1.0520   -7.8130    2.9940 C.3   102  LYS102      0.1561
     91  C         -1.1810   -8.3240    1.5480 C.2   102  LYS102      0.2260
     92  O         -0.6740   -9.3900    1.2060 O.2   102  LYS102     -0.2867
     93  CB         0.3390   -7.2650    3.3020 C.3   102  LYS102      0.0271
     94  CG         0.4170   -6.6130    4.7410 C.3   102  LYS102      0.0035
     95  CD        -0.2390   -5.2290    4.7530 C.3   102  LYS102      0.0206
     96  CE         0.6250   -4.2260    3.9590 C.3   102  LYS102      0.1093
     97  NZ         0.6410   -2.7340    4.3290 N.3   102  LYS102     -0.1314
     98  N          4.2660   -2.9960   -0.4100 N.3   125  GLY125     -0.1210
     99  CA         3.5940   -2.7390    0.8470 C.3   125  GLY125      0.1956
    100  C          4.0680   -3.5820    2.0240 C.2   125  GLY125      0.2612
    101  O          3.4550   -3.5610    3.0730 O.2   125  GLY125     -0.2717
    102  N          5.2040   -4.2330    1.8800 N.am  126  VAL126     -0.1965
    103  CA         5.7890   -5.0220    2.9650 C.3   126  VAL126      0.1727
    104  C          7.2580   -4.6740    3.2550 C.2   126  VAL126      0.2617
    105  O          8.0120   -5.5080    3.7600 O.2   126  VAL126     -0.2715
    106  CB         5.6420   -6.5130    2.6640 C.3   126  VAL126      0.0290
    107  CG1        4.1910   -6.9130    2.7860 C.3   126  VAL126      0.0023
    108  CG2        6.1990   -6.8680    1.2800 C.3   126  VAL126      0.0023
    109  N          7.6340   -3.4280    2.9700 N.am  127  GLY127     -0.1940
    110  CA         9.0020   -2.9530    3.1290 C.3   127  GLY127      0.2014
    111  C          9.5510   -3.0150    4.5510 C.2   127  GLY127      0.2639
    112  O         10.7630   -3.1240    4.7120 O.2   127  GLY127     -0.2714
    113  N          8.6790   -2.9410    5.5780 N.am  128  PHE128     -0.1959
    114  CA         9.1370   -3.0950    6.9700 C.3   128  PHE128      0.1771
    115  C         10.0130   -4.3370    7.1600 C.2   128  PHE128      0.2619
    116  O         11.0000   -4.2870    7.8800 O.2   128  PHE128     -0.2715
    117  CB         7.9510   -3.1390    7.9520 C.3   128  PHE128      0.0574
    118  CG         8.3210   -3.5900    9.3320 C.ar  128  PHE128     -0.0200
    119  CD1        9.0250   -2.7540   10.1750 C.ar  128  PHE128     -0.0042
    120  CD2        7.9780   -4.8590    9.7890 C.ar  128  PHE128     -0.0042
    121  CE1        9.3950   -3.1690   11.4510 C.ar  128  PHE128     -0.0003
    122  CE2        8.3260   -5.2830   11.0850 C.ar  128  PHE128     -0.0003
    123  CZ         9.0330   -4.4240   11.9160 C.ar  128  PHE128     -0.0000
    124  N          9.6600   -5.4270    6.4810 N.am  129  TYR129     -0.1974
    125  CA        10.2720   -6.7130    6.7110 C.3   129  TYR129      0.1639
    126  C         11.6860   -6.8030    6.1710 C.2   129  TYR129      0.2290
    127  O         12.4140   -7.7000    6.5940 O.2   129  TYR129     -0.2864
    128  CB         9.3510   -7.8700    6.2430 C.3   129  TYR129      0.0560
    129  CG         8.0590   -7.8810    7.0180 C.ar  129  TYR129     -0.0198
    130  CD1        8.0250   -8.3270    8.3460 C.ar  129  TYR129     -0.0009
    131  CD2        6.8920   -7.3770    6.4740 C.ar  129  TYR129     -0.0009
    132  CE1        6.8430   -8.3100    9.0870 C.ar  129  TYR129      0.0417
    133  CE2        5.6960   -7.3540    7.2110 C.ar  129  TYR129      0.0417
    134  CZ         5.6890   -7.8200    8.5300 C.ar  129  TYR129      0.1957
    135  OH         4.5340   -7.7510    9.3010 O.3   129  TYR129     -0.2866
    136  N         10.1120   -2.5290   18.0120 N.3   140  VAL140     -0.1245
    137  CA         9.4430   -1.2850   17.5910 C.3   140  VAL140      0.1561
    138  C          8.7190   -0.7190   18.8000 C.2   140  VAL140      0.2260
    139  O          7.7370   -1.3280   19.2950 O.2   140  VAL140     -0.2867
    140  CB         8.4430   -1.5620   16.4470 C.3   140  VAL140      0.0252
    141  CG1        7.5870   -0.2950   16.0880 C.3   140  VAL140      0.0019
    142  CG2        9.1800   -2.1130   15.2280 C.3   140  VAL140      0.0019
    143  N          7.6430    6.7790   16.6430 N.3   174  THR174     -0.1218
    144  CA         8.0200    5.3820   16.5590 C.3   174  THR174      0.1862
    145  C          9.5370    5.2790   16.5760 C.2   174  THR174      0.2287
    146  O         10.2260    6.1150   15.9360 O.2   174  THR174     -0.2866
    147  CB         7.4260    4.7900   15.2700 C.3   174  THR174      0.1770
    148  OG1        5.9910    4.7620   15.3820 O.3   174  THR174     -0.2211
    149  CG2        7.8620    3.3180   15.0750 C.3   174  THR174      0.0375
    150  N         12.5310    2.3700   16.0770 N.3   176  VAL176     -0.1245
    151  CA        12.8300    1.0200   15.6230 C.3   176  VAL176      0.1561
    152  C         14.2470    0.7100   16.0240 C.2   176  VAL176      0.2260
    153  O         15.1340    1.4410   15.6740 O.2   176  VAL176     -0.2867
    154  CB        12.6640    0.8660   14.1250 C.3   176  VAL176      0.0252
    155  CG1       12.9190   -0.6410   13.6950 C.3   176  VAL176      0.0019
    156  CG2       11.2970    1.2670   13.7090 C.3   176  VAL176      0.0019
@<TRIPOS>BOND
     1    98    99    1
     2    99   100    1
     3    92    91    2
     4   108   106    1
     5    91    90    1
     6   102   100   am
     7   102   103    1
     8   100   101    2
     9   106   107    1
    10   106   103    1
    11   103   104    1
    12   109   110    1
    13   109   104   am
    14    90    93    1
    15    90    89    1
    16   110   111    1
    17   104   105    2
    18    93    94    1
    19    96    97    1
    20    96    95    1
    21   111   112    2
    22   111   113   am
    23    94    95    1
    24    15    14    2
    25   113   114    1
    26     9    10    1
    27   126   127    2
    28   126   125    1
    29     1     2    1
    30   128   125    1
    31   128   129    1
    32   131   129   ar
    33   131   133   ar
    34   124   125    1
    35   124   115   am
    36    14    16   am
    37    14    13    1
    38    10    13    1
    39    10    11    1
    40   114   115    1
    41   114   117    1
    42   129   130   ar
    43   115   116    2
    44    35    36    1
    45    35    34    1
    46   133   134   ar
    47     3     2    1
    48     3     4    2
    49     2     5    1
    50    11    12    2
    51    11    17   am
    52   117   118    1
    53    33    34    1
    54    33    32    1
    55    28    29    1
    56    23    24    1
    57    17    18    1
    58   130   132   ar
    59     5     6    1
    60   134   132   ar
    61   134   135    1
    62    19    20    2
    63    19    18    1
    64    29    32    1
    65    29    30    1
    66     6     7    1
    67     6     8    1
    68    18    21    1
    69   118   120   ar
    70   118   119   ar
    71    76    75    2
    72    24    25    1
    73    24    27    1
    74    21    22    1
    75   120   122   ar
    76    30    31    2
    77    25    26    2
    78    79    78    2
    79   119   121   ar
    80    78    77    1
    81    78    80   am
    82    75    74    1
    83    75    81   am
    84    74    77    1
    85    74    73    1
    86    88    86    1
    87   122   123   ar
    88   121   123   ar
    89    81    82    1
    90    82    83    1
    91    82    85    1
    92    83    84    2
    93    86    85    1
    94    86    87    1
    95    51    49    1
    96    44    42   ar
    97    52    50    1
    98    41    42    1
    99    41    38    1
   100    42    43   ar
   101    49    50    1
   102    49    46    1
   103    68    67    2
   104    45    46    1
   105   155   154    1
   106   156   154    1
   107    63    62    1
   108    63    64    1
   109    71    70   ar
   110   154   151    1
   111    46    47    1
   112    70    69    1
   113    70    72   ar
   114    62    61    1
   115    38    37    1
   116    38    39    1
   117    67    66    1
   118    69    66    1
   119    66    65    1
   120    56    55    2
   121    53    47   am
   122    53    54    1
   123   149   147    1
   124    47    48    2
   125   142   140    1
   126   147   148    1
   127   147   144    1
   128    39    40    2
   129   151   152    1
   130   151   150    1
   131    55    54    1
   132    55    57   am
   133   153   152    2
   134    61    58    1
   135   146   145    2
   136   141   140    1
   137    58    57    1
   138    58    59    1
   139   140   137    1
   140   144   145    1
   141   144   143    1
   142    59    60    2
   143   137   136    1
   144   137   138    1
   145   138   139    2
