@<TRIPOS>MOLECULE
tmp/2byiA00.pdb
 156 146 0 0 0
SMALL
GASTEIGER

@<TRIPOS>ATOM
      1  N         12.9480    1.8850    6.2440 N.3    38  LEU38      -0.1245
      2  CA        12.6600    2.4170    7.5780 C.3    38  LEU38       0.1561
      3  C         12.4450    3.9620    7.5600 C.2    38  LEU38       0.2260
      4  O         11.5130    4.4590    8.1660 O.2    38  LEU38      -0.2867
      5  CB        13.7920    2.0470    8.5600 C.3    38  LEU38       0.0270
      6  CG        13.9590    0.6490    9.1560 C.3    38  LEU38       0.0019
      7  CD1       15.4640    0.3870    9.2640 C.3    38  LEU38       0.0001
      8  CD2       13.3740    0.6580   10.5620 C.3    38  LEU38       0.0001
      9  N          9.0930    4.6540    5.9610 N.3    41  ASN41      -0.1225
     10  CA         8.0230    4.3640    6.9340 C.3    41  ASN41       0.1785
     11  C          7.8840    5.4620    8.0020 C.2    41  ASN41       0.2597
     12  O          6.7650    5.8570    8.4040 O.2    41  ASN41      -0.2718
     13  CB         8.2410    2.9740    7.5320 C.3    41  ASN41       0.1169
     14  CG         8.0130    1.8620    6.5160 C.2    41  ASN41       0.2627
     15  OD1        7.4590    2.0860    5.4340 O.2    41  ASN41      -0.2716
     16  ND2        8.4300    0.6620    6.8620 N.am   41  ASN41      -0.0877
     17  N          9.0190    5.9820    8.4670 N.am   42  SER42      -0.1952
     18  CA         9.0220    7.1430    9.3590 C.3    42  SER42       0.1924
     19  C          8.4260    8.3990    8.6860 C.2    42  SER42       0.2314
     20  O          7.5710    9.0800    9.2700 O.2    42  SER42      -0.2863
     21  CB        10.4570    7.4810    9.8190 C.3    42  SER42       0.2116
     22  OG        10.9330    6.4780   10.6980 O.3    42  SER42      -0.2180
     23  N          6.3340    8.4880    6.2230 N.3    44  ASP44      -0.1225
     24  CA         4.8770    8.2630    6.1300 C.3    44  ASP44       0.1805
     25  C          4.1430    8.6960    7.4240 C.2    44  ASP44       0.2597
     26  O          3.0730    9.4000    7.3830 O.2    44  ASP44      -0.2718
     27  CB         4.6250    6.7850    5.7920 C.3    44  ASP44       0.1424
     28  CG         3.1830    6.4840    5.4600 C.2    44  ASP44       0.3668
     29  OD1        2.4910    7.3400    4.8980 O.co2  44  ASP44      -0.2456
     30  OD2        2.6540    5.3950    5.7030 O.co2  44  ASP44      -0.2456
     31  N          4.7290    8.3380    8.5800 N.am   45  ALA45      -0.1979
     32  CA         4.1500    8.6820    9.8730 C.3    45  ALA45       0.1597
     33  C          4.2320   10.1550   10.2050 C.2    45  ALA45       0.2287
     34  O          3.3620   10.6870   10.9260 O.2    45  ALA45      -0.2864
     35  CB         4.8080    7.8520   11.0070 C.3    45  ALA45       0.0319
     36  N          1.5310   11.9150    8.3200 N.3    48  LYS48      -0.1245
     37  CA         0.2570   11.7310    8.9990 C.3    48  LYS48       0.1561
     38  C          0.0270   12.7310   10.1380 C.2    48  LYS48       0.2260
     39  O         -1.0370   13.3510   10.2090 O.2    48  LYS48      -0.2867
     40  CB         0.1200   10.2970    9.4760 C.3    48  LYS48       0.0271
     41  CG        -0.1560    9.3730    8.2920 C.3    48  LYS48       0.0035
     42  CD        -0.0930    7.8970    8.6580 C.3    48  LYS48       0.0206
     43  CE        -0.2270    7.0450    7.3780 C.3    48  LYS48       0.1093
     44  NZ         0.0680    5.5920    7.6350 N.3    48  LYS48      -0.1314
     45  N         11.5920    8.3290   15.0850 N.3    83  ASP83      -0.1239
     46  CA        10.8410    9.4490   14.4790 C.3    83  ASP83       0.1674
     47  C          9.8200   10.0540   15.4300 C.2    83  ASP83       0.2266
     48  O          9.4230    9.4230   16.4000 O.2    83  ASP83      -0.2867
     49  CB        10.1610    9.0480   13.1400 C.3    83  ASP83       0.1410
     50  CG         9.0270    8.0530   13.3180 C.2    83  ASP83       0.3668
     51  OD1        8.0070    8.3830   13.9680 O.co2  83  ASP83      -0.2456
     52  OD2        9.0830    6.9130   12.8100 O.co2  83  ASP83      -0.2456
     53  N          3.2430   10.1220   13.8540 N.3    86  ILE86      -0.1231
     54  CA         1.9680    9.9490   14.5550 C.3    86  ILE86       0.1692
     55  C          1.9550    8.7650   15.5410 C.2    86  ILE86       0.2593
     56  O          1.1570    8.7330   16.4850 O.2    86  ILE86      -0.2718
     57  CB         0.8080    9.8470   13.5000 C.3    86  ILE86       0.0266
     58  CG1       -0.5590   10.0610   14.1580 C.3    86  ILE86       0.0019
     59  CG2        0.8690    8.5010   12.7180 C.3    86  ILE86       0.0020
     60  CD1       -1.6270   10.5220   13.1150 C.3    86  ILE86       0.0001
     61  N          2.8530    7.7970   15.3470 N.am   87  GLY87      -0.1942
     62  CA         2.8850    6.6570   16.2440 C.3    87  GLY87       0.2014
     63  C          1.7920    5.6450   15.9080 C.2    87  GLY87       0.2638
     64  O          1.0180    5.8040   14.9460 O.2    87  GLY87      -0.2714
     65  N          1.7460    4.5890   16.7070 N.am   88  MET88      -0.1976
     66  CA         0.7650    3.5360   16.5210 C.3    88  MET88       0.1605
     67  C          0.0310    3.2180   17.8240 C.2    88  MET88       0.2287
     68  O          0.6530    3.1170   18.8940 O.2    88  MET88      -0.2864
     69  CB         1.4460    2.2680   15.9650 C.3    88  MET88       0.0413
     70  CG         1.9320    2.3990   14.4890 C.3    88  MET88       0.0598
     71  SD         2.8090    0.9280   13.9060 S.3    88  MET88      -0.1393
     72  CE         4.4740    1.2730   14.5760 C.3    88  MET88       0.0692
     73  N         -1.0550   -3.8900   11.8700 N.3    96  ASN96      -0.1225
     74  CA        -0.2150   -3.4160   10.7800 C.3    96  ASN96       0.1785
     75  C          1.1660   -4.0280   10.7210 C.2    96  ASN96       0.2597
     76  O          1.7980   -3.9900    9.6580 O.2    96  ASN96      -0.2718
     77  CB        -0.1230   -1.8940   10.7970 C.3    96  ASN96       0.1169
     78  CG        -1.4710   -1.2280   10.5130 C.2    96  ASN96       0.2627
     79  OD1       -2.4570   -1.9040   10.1570 O.2    96  ASN96      -0.2716
     80  ND2       -1.5240    0.0810   10.6730 N.am   96  ASN96      -0.0877
     81  N          1.6470   -4.5490   11.8540 N.am   97  LEU97      -0.1980
     82  CA         2.9350   -5.2490   11.8940 C.3    97  LEU97       0.1596
     83  C          2.7610   -6.7300   12.1600 C.2    97  LEU97       0.2287
     84  O          3.4700   -7.3130   12.9660 O.2    97  LEU97      -0.2864
     85  CB         3.9230   -4.6380   12.9100 C.3    97  LEU97       0.0297
     86  CG         4.4130   -3.2000   12.6670 C.3    97  LEU97       0.0022
     87  CD1        5.5490   -2.7910   13.6450 C.3    97  LEU97       0.0001
     88  CD2        4.8610   -2.9700   11.2390 C.3    97  LEU97       0.0001
     89  N         -1.2930   -8.8850    3.8390 N.3   102  LYS102     -0.1245
     90  CA        -0.9940   -7.7900    2.9260 C.3   102  LYS102      0.1561
     91  C         -1.1870   -8.2420    1.4680 C.2   102  LYS102      0.2260
     92  O         -0.7560   -9.3550    1.0890 O.2   102  LYS102     -0.2867
     93  CB         0.4030   -7.2140    3.2360 C.3   102  LYS102      0.0271
     94  CG         0.3590   -6.3390    4.5330 C.3   102  LYS102      0.0035
     95  CD        -0.3420   -4.9750    4.2590 C.3   102  LYS102      0.0206
     96  CE        -1.5390   -4.6750    5.2150 C.3   102  LYS102      0.1093
     97  NZ        -2.9930   -4.7410    4.6360 N.3   102  LYS102     -0.1314
     98  N          4.3390   -3.0510   -0.7330 N.3   125  GLY125     -0.1210
     99  CA         3.6560   -2.7090    0.5020 C.3   125  GLY125      0.1956
    100  C          4.0530   -3.4470    1.7760 C.2   125  GLY125      0.2612
    101  O          3.3470   -3.3590    2.7890 O.2   125  GLY125     -0.2717
    102  N          5.2040   -4.1290    1.7520 N.am  126  VAL126     -0.1965
    103  CA         5.6660   -4.9240    2.8970 C.3   126  VAL126      0.1727
    104  C          7.1260   -4.6180    3.2790 C.2   126  VAL126      0.2617
    105  O          7.8510   -5.4900    3.7760 O.2   126  VAL126     -0.2715
    106  CB         5.5010   -6.4450    2.6130 C.3   126  VAL126      0.0290
    107  CG1        4.0180   -6.8460    2.7440 C.3   126  VAL126      0.0023
    108  CG2        6.0600   -6.8280    1.2070 C.3   126  VAL126      0.0023
    109  N          7.5260   -3.3700    3.0600 N.am  127  GLY127     -0.1940
    110  CA         8.9090   -2.9320    3.2560 C.3   127  GLY127      0.2014
    111  C          9.4310   -3.0530    4.6710 C.2   127  GLY127      0.2639
    112  O         10.6480   -3.1110    4.8800 O.2   127  GLY127     -0.2714
    113  N          8.5490   -3.0510    5.6760 N.am  128  PHE128     -0.1959
    114  CA         9.0280   -3.1790    7.0700 C.3   128  PHE128      0.1771
    115  C          9.8940   -4.4210    7.2180 C.2   128  PHE128      0.2619
    116  O         10.9090   -4.3960    7.9340 O.2   128  PHE128     -0.2715
    117  CB         7.8560   -3.2150    8.0670 C.3   128  PHE128      0.0574
    118  CG         8.2270   -3.6640    9.4510 C.ar  128  PHE128     -0.0200
    119  CD1        8.9520   -2.8060   10.3020 C.ar  128  PHE128     -0.0042
    120  CD2        7.8890   -4.9510    9.9100 C.ar  128  PHE128     -0.0042
    121  CE1        9.3080   -3.2020   11.6290 C.ar  128  PHE128     -0.0003
    122  CE2        8.2190   -5.3840   11.2430 C.ar  128  PHE128     -0.0003
    123  CZ         8.9430   -4.4940   12.1050 C.ar  128  PHE128     -0.0000
    124  N          9.4860   -5.5040    6.5560 N.am  129  TYR129     -0.1974
    125  CA        10.1380   -6.7980    6.7410 C.3   129  TYR129      0.1639
    126  C         11.5720   -6.8740    6.2230 C.2   129  TYR129      0.2290
    127  O         12.3190   -7.7800    6.6380 O.2   129  TYR129     -0.2864
    128  CB         9.2290   -7.9720    6.2460 C.3   129  TYR129      0.0560
    129  CG         7.9580   -7.9480    7.0310 C.ar  129  TYR129     -0.0198
    130  CD1        7.9160   -8.4510    8.3490 C.ar  129  TYR129     -0.0009
    131  CD2        6.7880   -7.3600    6.4960 C.ar  129  TYR129     -0.0009
    132  CE1        6.7210   -8.3790    9.1290 C.ar  129  TYR129      0.0417
    133  CE2        5.6210   -7.2760    7.2600 C.ar  129  TYR129      0.0417
    134  CZ         5.5870   -7.8020    8.5590 C.ar  129  TYR129      0.1957
    135  OH         4.4260   -7.6940    9.2950 O.3   129  TYR129     -0.2866
    136  N         10.0830   -2.6560   18.1070 N.3   140  VAL140     -0.1245
    137  CA         9.4330   -1.3980   17.7210 C.3   140  VAL140      0.1561
    138  C          8.7220   -0.8210   18.9670 C.2   140  VAL140      0.2260
    139  O          7.7540   -1.4230   19.5120 O.2   140  VAL140     -0.2867
    140  CB         8.4480   -1.6140   16.5460 C.3   140  VAL140      0.0252
    141  CG1        7.7590   -0.3110   16.1770 C.3   140  VAL140      0.0019
    142  CG2        9.1660   -2.2160   15.3180 C.3   140  VAL140      0.0019
    143  N          7.7350    6.7360   16.8350 N.3   174  THR174     -0.1218
    144  CA         8.0850    5.3230   16.7680 C.3   174  THR174      0.1862
    145  C          9.6180    5.1970   16.7730 C.2   174  THR174      0.2287
    146  O         10.3170    5.9740   16.0990 O.2   174  THR174     -0.2866
    147  CB         7.4990    4.7190   15.4670 C.3   174  THR174      0.1770
    148  OG1        6.0500    4.7470   15.5090 O.3   174  THR174     -0.2211
    149  CG2        7.9050    3.2110   15.3350 C.3   174  THR174      0.0375
    150  N         12.5590    2.2580   16.1830 N.3   176  VAL176     -0.1245
    151  CA        12.8060    0.8830   15.7480 C.3   176  VAL176      0.1561
    152  C         14.2100    0.5790   16.1650 C.2   176  VAL176      0.2260
    153  O         15.0870    1.3370   15.8140 O.2   176  VAL176     -0.2867
    154  CB        12.6970    0.7040   14.2290 C.3   176  VAL176      0.0252
    155  CG1       12.9570   -0.8040   13.8330 C.3   176  VAL176      0.0019
    156  CG2       11.3320    1.2060   13.6990 C.3   176  VAL176      0.0019
@<TRIPOS>BOND
     1    98    99    1
     2    99   100    1
     3    92    91    2
     4   108   106    1
     5    91    90    1
     6   102   100   am
     7   102   103    1
     8   100   101    2
     9   106   107    1
    10   106   103    1
    11   103   104    1
    12    90    93    1
    13    90    89    1
    14   109   110    1
    15   109   104   am
    16    93    94    1
    17   110   111    1
    18   104   105    2
    19    95    94    1
    20    95    96    1
    21    97    96    1
    22   111   112    2
    23   111   113   am
    24    29    28   ar
    25    15    14    2
    26    28    30   ar
    27    28    27    1
    28   113   114    1
    29    27    24    1
    30     9    10    1
    31    24    23    1
    32    24    25    1
    33   126   127    2
    34   126   125    1
    35     1     2    1
    36   128   125    1
    37   128   129    1
    38   131   129   ar
    39   131   133   ar
    40    14    16   am
    41    14    13    1
    42   124   125    1
    43   124   115   am
    44    10    13    1
    45    10    11    1
    46   129   130   ar
    47   114   115    1
    48   114   117    1
    49   115   116    2
    50   133   134   ar
    51    43    44    1
    52    43    42    1
    53    26    25    2
    54    25    31   am
    55     3     2    1
    56     3     4    2
    57     2     5    1
    58    11    12    2
    59    11    17   am
    60   117   118    1
    61    41    42    1
    62    41    40    1
    63    36    37    1
    64   130   132   ar
    65    17    18    1
    66   134   132   ar
    67   134   135    1
    68     5     6    1
    69    31    32    1
    70    19    20    2
    71    19    18    1
    72    37    40    1
    73    37    38    1
    74     6     7    1
    75     6     8    1
    76    18    21    1
    77   118   120   ar
    78   118   119   ar
    79    76    75    2
    80    21    22    1
    81    32    33    1
    82    32    35    1
    83   120   122   ar
    84    38    39    2
    85    79    78    2
    86    33    34    2
    87   119   121   ar
    88    78    80   am
    89    78    77    1
    90    75    74    1
    91    75    81   am
    92    74    77    1
    93    74    73    1
    94    88    86    1
    95   122   123   ar
    96   121   123   ar
    97    81    82    1
    98    82    83    1
    99    82    85    1
   100    83    84    2
   101    86    85    1
   102    86    87    1
   103    59    57    1
   104    52    50   ar
   105    60    58    1
   106    49    50    1
   107    49    46    1
   108    50    51   ar
   109    57    58    1
   110    57    54    1
   111   156   154    1
   112   155   154    1
   113    53    54    1
   114    71    70    1
   115    71    72    1
   116   154   151    1
   117    46    45    1
   118    46    47    1
   119    70    69    1
   120    54    55    1
   121    64    63    2
   122   142   140    1
   123   149   147    1
   124    61    55   am
   125    61    62    1
   126    47    48    2
   127   147   148    1
   128   147   144    1
   129    55    56    2
   130   151   152    1
   131   151   150    1
   132   153   152    2
   133    63    62    1
   134    63    65   am
   135    69    66    1
   136   146   145    2
   137   141   140    1
   138    66    65    1
   139    66    67    1
   140   140   137    1
   141   144   145    1
   142   144   143    1
   143   137   136    1
   144   137   138    1
   145    67    68    2
   146   138   139    2
