@<TRIPOS>MOLECULE
tmp/2byoA01.pdb
 132 121 0 0 0
SMALL
GASTEIGER

@<TRIPOS>ATOM
      1  N          6.9880   18.9660   17.3810 N.3    26  VAL26      -0.1245
      2  CA         5.6950   18.3640   17.6700 C.3    26  VAL26       0.1561
      3  C          5.0240   19.1310   18.8060 C.2    26  VAL26       0.2260
      4  O          5.6280   19.3680   19.8460 O.2    26  VAL26      -0.2867
      5  CB         5.8370   16.8790   18.0540 C.3    26  VAL26       0.0252
      6  CG1        4.4710   16.2760   18.3750 C.3    26  VAL26       0.0019
      7  CG2        6.5240   16.0900   16.9270 C.3    26  VAL26       0.0019
      8  N         -1.0260    8.7740   22.7880 N.3    34  SER34      -0.1202
      9  CA        -0.5270    7.8440   21.7780 C.3    34  SER34       0.2020
     10  C          0.9170    8.0900   21.3380 C.2    34  SER34       0.2619
     11  O          1.4070    7.4120   20.4370 O.2    34  SER34      -0.2717
     12  CB        -1.4420    7.8840   20.5520 C.3    34  SER34       0.2103
     13  OG        -1.4610    9.1730   19.9660 O.3    34  SER34      -0.2182
     14  N          1.6000    9.0490   21.9550 N.am   35  LEU35      -0.1965
     15  CA         3.0050    9.2940   21.6340 C.3    35  LEU35       0.1728
     16  C          3.9180    8.8690   22.7790 C.2    35  LEU35       0.2616
     17  O          4.9100    9.5320   23.0680 O.2    35  LEU35      -0.2715
     18  CB         3.2280   10.7690   21.2890 C.3    35  LEU35       0.0311
     19  CG         2.3690   11.3530   20.1690 C.3    35  LEU35       0.0022
     20  CD1        2.7250   12.8130   19.9890 C.3    35  LEU35       0.0001
     21  CD2        2.5550   10.5820   18.8680 C.3    35  LEU35       0.0001
     22  N          3.5740    7.7560   23.4220 N.am   36  LEU36      -0.1977
     23  CA         4.3820    7.1810   24.4980 C.3    36  LEU36       0.1596
     24  C          4.5560    8.1170   25.7030 C.2    36  LEU36       0.2287
     25  O          5.5450    8.0100   26.4340 O.2    36  LEU36      -0.2864
     26  CB         5.7600    6.7510   23.9610 C.3    36  LEU36       0.0297
     27  CG         5.7830    5.8820   22.7020 C.3    36  LEU36       0.0022
     28  CD1        7.2170    5.6290   22.2660 C.3    36  LEU36       0.0001
     29  CD2        5.0640    4.5800   22.9410 C.3    36  LEU36       0.0001
     30  N          4.7840   11.4550   25.4650 N.3    38  ILE38      -0.1245
     31  CA         5.3320   12.7150   24.9860 C.3    38  ILE38       0.1561
     32  C          4.1950   13.5970   24.4580 C.2    38  ILE38       0.2260
     33  O          3.3120   13.1080   23.7510 O.2    38  ILE38      -0.2867
     34  CB         6.3690   12.4860   23.8710 C.3    38  ILE38       0.0252
     35  CG1        7.5660   11.7110   24.4250 C.3    38  ILE38       0.0019
     36  CG2        6.8160   13.8360   23.2560 C.3    38  ILE38       0.0019
     37  CD1        8.5920   11.3610   23.3820 C.3    38  ILE38       0.0001
     38  N          7.7100   18.0660   21.3920 N.3    41  ALA41      -0.1245
     39  CA         9.1150   17.7790   21.0880 C.3    41  ALA41       0.1562
     40  C          9.6700   18.7290   20.0460 C.2    41  ALA41       0.2260
     41  O          8.9390   19.2170   19.1910 O.2    41  ALA41      -0.2867
     42  CB         9.2910   16.3310   20.6210 C.3    41  ALA41       0.0290
     43  N         13.0660   18.2000   17.6910 N.3    43  VAL43      -0.1245
     44  CA        13.9690   17.0920   17.4110 C.3    43  VAL43       0.1561
     45  C         14.6880   17.2760   16.0690 C.2    43  VAL43       0.2260
     46  O         14.0650   17.5760   15.0580 O.2    43  VAL43      -0.2867
     47  CB        13.1790   15.7520   17.4260 C.3    43  VAL43       0.0252
     48  CG1       14.0960   14.5560   17.2100 C.3    43  VAL43       0.0019
     49  CG2       12.4560   15.5850   18.7630 C.3    43  VAL43       0.0019
     50  N         18.2610    6.1060   10.2130 N.3    50  LEU50      -0.1245
     51  CA        17.3340    6.9030   11.0100 C.3    50  LEU50       0.1561
     52  C         17.8910    7.1480   12.4130 C.2    50  LEU50       0.2260
     53  O         18.2080    6.2080   13.1420 O.2    50  LEU50      -0.2867
     54  CB        15.9630    6.2330   11.1120 C.3    50  LEU50       0.0270
     55  CG        14.8920    7.0530   11.8500 C.3    50  LEU50       0.0019
     56  CD1       14.5480    8.3140   11.0820 C.3    50  LEU50       0.0001
     57  CD2       13.6420    6.2250   12.0810 C.3    50  LEU50       0.0001
     58  N         15.8210   13.7720   24.4770 N.3    66  PHE66      -0.1241
     59  CA        15.1190   12.7690   23.6700 C.3    66  PHE66       0.1605
     60  C         16.0610   12.2720   22.5950 C.2    66  PHE66       0.2264
     61  O         16.7560   13.0670   21.9780 O.2    66  PHE66      -0.2867
     62  CB        13.8740   13.3970   23.0050 C.3    66  PHE66       0.0534
     63  CG        13.2140   12.5110   21.9670 C.ar   66  PHE66      -0.0203
     64  CD1       12.1590   11.6740   22.3150 C.ar   66  PHE66      -0.0042
     65  CD2       13.6570   12.5000   20.6580 C.ar   66  PHE66      -0.0042
     66  CE1       11.5560   10.8470   21.3750 C.ar   66  PHE66      -0.0003
     67  CE2       13.0520   11.6680   19.6980 C.ar   66  PHE66      -0.0003
     68  CZ        12.0020   10.8440   20.0630 C.ar   66  PHE66      -0.0000
     69  N         13.8800    4.2410   21.1050 N.3    73  ILE73      -0.1245
     70  CA        13.3620    5.5760   21.3910 C.3    73  ILE73       0.1561
     71  C         13.5410    5.7710   22.8890 C.2    73  ILE73       0.2260
     72  O         13.0070    4.9870   23.6720 O.2    73  ILE73      -0.2867
     73  CB        11.8630    5.6750   21.0300 C.3    73  ILE73       0.0252
     74  CG1       11.6650    5.4580   19.5200 C.3    73  ILE73       0.0019
     75  CG2       11.2790    7.0140   21.4620 C.3    73  ILE73       0.0019
     76  CD1       10.2160    5.1760   19.1250 C.3    73  ILE73       0.0001
     77  N         11.4650    1.0140   17.6230 N.3    87  ILE87      -0.1245
     78  CA        11.0000    1.3370   16.2790 C.3    87  ILE87       0.1561
     79  C         10.3490    0.1200   15.6300 C.2    87  ILE87       0.2260
     80  O          9.2250    0.2000   15.1300 O.2    87  ILE87      -0.2867
     81  CB        12.1630    1.8490   15.4000 C.3    87  ILE87       0.0252
     82  CG1       12.6130    3.2330   15.8800 C.3    87  ILE87       0.0019
     83  CG2       11.7480    1.9250   13.9360 C.3    87  ILE87       0.0019
     84  CD1       13.9260    3.6830   15.2810 C.3    87  ILE87       0.0001
     85  N          6.9690   -0.8510   17.4070 N.3    90  LEU90      -0.1231
     86  CA         5.9040    0.0660   16.9950 C.3    90  LEU90       0.1693
     87  C          5.5130   -0.1590   15.5290 C.2    90  LEU90       0.2592
     88  O          4.3400   -0.0790   15.1800 O.2    90  LEU90      -0.2718
     89  CB         6.3240    1.5250   17.2090 C.3    90  LEU90       0.0284
     90  CG         6.4620    1.9950   18.6610 C.3    90  LEU90       0.0019
     91  CD1        7.1480    3.3500   18.6980 C.3    90  LEU90       0.0001
     92  CD2        5.1060    2.0550   19.3610 C.3    90  LEU90       0.0001
     93  N          6.4930   -0.4570   14.6790 N.am   91  SER91      -0.1952
     94  CA         6.2360   -0.6790   13.2490 C.3    91  SER91       0.1924
     95  C          5.3490   -1.9010   12.9790 C.2    91  SER91       0.2314
     96  O          4.5980   -1.9170   12.0040 O.2    91  SER91      -0.2863
     97  CB         7.5580   -0.8150   12.4850 C.3    91  SER91       0.2116
     98  OG         7.3630   -0.7090   11.0870 O.3    91  SER91      -0.2180
     99  N          1.5890   -1.0870   15.2140 N.3    94  ARG94      -0.1231
    100  CA         0.6720   -0.0390   14.7530 C.3    94  ARG94       0.1694
    101  C          0.4710   -0.0750   13.2270 C.2    94  ARG94       0.2591
    102  O         -0.5460    0.4150   12.7270 O.2    94  ARG94      -0.2718
    103  CB         1.1860    1.3500   15.1780 C.3    94  ARG94       0.0321
    104  CG         2.1250    1.3770   16.4040 C.3    94  ARG94       0.0489
    105  CD         1.5370    2.0500   17.6270 C.3    94  ARG94       0.2205
    106  NE         1.3980    3.4850   17.4190 N.pl3  94  ARG94      -0.0865
    107  CZ         1.3210    4.4030   18.3820 C.cat  94  ARG94       0.5346
    108  NH1        1.3840    4.0740   19.6670 N.pl3  94  ARG94       0.1354
    109  NH2        1.1900    5.6780   18.0430 N.pl3  94  ARG94       0.1354
    110  N          1.4290   -0.6770   12.5130 N.am   95  VAL95      -0.1980
    111  CA         1.4840   -0.7260   11.0370 C.3    95  VAL95       0.1595
    112  C          2.0340    0.5900   10.4890 C.2    95  VAL95       0.2287
    113  O          3.2350    0.8630   10.5960 O.2    95  VAL95      -0.2864
    114  CB         0.1170   -1.0540   10.3610 C.3    95  VAL95       0.0276
    115  CG1        0.2930   -1.2390    8.8500 C.3    95  VAL95       0.0022
    116  CG2       -0.5050   -2.3030   10.9740 C.3    95  VAL95       0.0022
    117  N         -2.7240    4.1380   13.2040 N.3   134  MET134     -0.1230
    118  CA        -1.2640    4.1070   13.1190 C.3   134  MET134      0.1702
    119  C         -0.6390    5.1630   14.0270 C.2   134  MET134      0.2592
    120  O          0.4360    4.9510   14.5910 O.2   134  MET134     -0.2718
    121  CB        -0.8040    4.3020   11.6740 C.3   134  MET134      0.0401
    122  CG        -1.1180    3.1050   10.7730 C.3   134  MET134      0.0596
    123  SD        -0.7400    3.3850    9.0310 S.3   134  MET134     -0.1393
    124  CE         0.8790    4.1600    9.1270 C.3   134  MET134      0.0692
    125  N         -1.3440    6.2800   14.1770 N.am  135  LEU135     -0.1980
    126  CA        -0.9310    7.4000   15.0200 C.3   135  LEU135      0.1596
    127  C         -1.5200    7.3090   16.4330 C.2   135  LEU135      0.2287
    128  O         -0.8760    7.6930   17.4110 O.2   135  LEU135     -0.2864
    129  CB        -1.4090    8.6940   14.3670 C.3   135  LEU135      0.0297
    130  CG        -0.5280    9.9350   14.4010 C.3   135  LEU135      0.0022
    131  CD1        0.9530    9.5900   14.2740 C.3   135  LEU135      0.0001
    132  CD2       -0.9840   10.8460   13.2780 C.3   135  LEU135      0.0001
@<TRIPOS>BOND
     1   115   114    1
     2   123   124    1
     3   123   122    1
     4    50    51    1
     5   114   116    1
     6   114   111    1
     7   112   113    2
     8   112   111    1
     9   122   121    1
    10    51    54    1
    11    51    52    1
    12   111   110    1
    13    56    55    1
    14    98    97    1
    15    54    55    1
    16   121   118    1
    17    55    57    1
    18    96    95    2
    19    52    53    2
    20    97    94    1
    21   110   101   am
    22   102   101    2
    23    95    94    1
    24   118   117    1
    25   118   119    1
    26   101   100    1
    27    94    93    1
    28   132   130    1
    29    83    81    1
    30   119   125   am
    31   119   120    2
    32   125   126    1
    33   131   130    1
    34   129   130    1
    35   129   126    1
    36    93    87   am
    37   100   103    1
    38   100    99    1
    39   126   127    1
    40    46    45    2
    41    80    79    2
    42   103   104    1
    43    88    87    2
    44    84    82    1
    45    81    82    1
    46    81    78    1
    47    87    86    1
    48    79    78    1
    49    45    44    1
    50    78    77    1
    51   104   105    1
    52   127   128    2
    53     7     5    1
    54    86    89    1
    55    86    85    1
    56    89    90    1
    57    48    47    1
    58     1     2    1
    59    44    47    1
    60    44    43    1
    61   106   105    1
    62   106   107    2
    63    47    49    1
    64     2     5    1
    65     2     3    1
    66   109   107    1
    67     5     6    1
    68   107   108    1
    69    90    91    1
    70    90    92    1
    71     3     4    2
    72    21    19    1
    73    76    74    1
    74    41    40    2
    75    74    73    1
    76    67    68   ar
    77    67    65   ar
    78    13    12    1
    79    20    19    1
    80    40    39    1
    81    68    66   ar
    82    19    18    1
    83    11    10    2
    84    12     9    1
    85    42    39    1
    86    65    63   ar
    87    73    70    1
    88    73    75    1
    89    39    38    1
    90    69    70    1
    91    18    15    1
    92    10     9    1
    93    10    14   am
    94    66    64   ar
    95    70    71    1
    96    15    14    1
    97    15    16    1
    98     9     8    1
    99    63    64   ar
   100    63    62    1
   101    61    60    2
   102    28    27    1
   103    60    59    1
   104    27    29    1
   105    27    26    1
   106    16    17    2
   107    16    22   am
   108    71    72    2
   109    62    59    1
   110    36    34    1
   111    37    35    1
   112    22    23    1
   113    59    58    1
   114    33    32    2
   115    34    35    1
   116    34    31    1
   117    26    23    1
   118    32    31    1
   119    23    24    1
   120    31    30    1
   121    24    25    2
