@<TRIPOS>MOLECULE
tmp/2byoA02.pdb
 170 152 0 0 0
SMALL
GASTEIGER

@<TRIPOS>ATOM
      1  N         12.1390   18.7640   13.4360 N.3    24  VAL24      -0.1245
      2  CA        10.7100   18.5610   13.6660 C.3    24  VAL24       0.1561
      3  C         10.2920   19.0910   15.0420 C.2    24  VAL24       0.2260
      4  O         10.9480   18.8100   16.0690 O.2    24  VAL24      -0.2867
      5  CB        10.3050   17.0750   13.5450 C.3    24  VAL24       0.0252
      6  CG1        8.8790   16.8760   13.9940 C.3    24  VAL24       0.0019
      7  CG2       10.4270   16.6020   12.1040 C.3    24  VAL24       0.0019
      8  N          6.9880   18.9660   17.3810 N.3    26  VAL26      -0.1245
      9  CA         5.6950   18.3640   17.6700 C.3    26  VAL26       0.1561
     10  C          5.0240   19.1310   18.8060 C.2    26  VAL26       0.2260
     11  O          5.6280   19.3680   19.8460 O.2    26  VAL26      -0.2867
     12  CB         5.8370   16.8790   18.0540 C.3    26  VAL26       0.0252
     13  CG1        4.4710   16.2760   18.3750 C.3    26  VAL26       0.0019
     14  CG2        6.5240   16.0900   16.9270 C.3    26  VAL26       0.0019
     15  N          1.6000    9.0490   21.9550 N.3    35  LEU35      -0.1245
     16  CA         3.0050    9.2940   21.6340 C.3    35  LEU35       0.1561
     17  C          3.9180    8.8690   22.7790 C.2    35  LEU35       0.2260
     18  O          4.9100    9.5320   23.0680 O.2    35  LEU35      -0.2867
     19  CB         3.2280   10.7690   21.2890 C.3    35  LEU35       0.0270
     20  CG         2.3690   11.3530   20.1690 C.3    35  LEU35       0.0019
     21  CD1        2.7250   12.8130   19.9890 C.3    35  LEU35       0.0001
     22  CD2        2.5550   10.5820   18.8680 C.3    35  LEU35       0.0001
     23  N         13.0660   18.2000   17.6910 N.3    43  VAL43      -0.1245
     24  CA        13.9690   17.0920   17.4110 C.3    43  VAL43       0.1561
     25  C         14.6880   17.2760   16.0690 C.2    43  VAL43       0.2260
     26  O         14.0650   17.5760   15.0580 O.2    43  VAL43      -0.2867
     27  CB        13.1790   15.7520   17.4260 C.3    43  VAL43       0.0252
     28  CG1       14.0960   14.5560   17.2100 C.3    43  VAL43       0.0019
     29  CG2       12.4560   15.5850   18.7630 C.3    43  VAL43       0.0019
     30  N         16.5410   15.3690   13.0730 N.3    45  VAL45      -0.1245
     31  CA        16.4040   14.0360   12.5040 C.3    45  VAL45       0.1561
     32  C         17.3750   13.8640   11.3490 C.2    45  VAL45       0.2260
     33  O         17.4620   14.7210   10.4650 O.2    45  VAL45      -0.2867
     34  CB        14.9690   13.7760   11.9840 C.3    45  VAL45       0.0252
     35  CG1       14.8580   12.3690   11.3850 C.3    45  VAL45       0.0019
     36  CG2       13.9490   13.9500   13.1000 C.3    45  VAL45       0.0019
     37  N         18.2610    6.1060   10.2130 N.3    50  LEU50      -0.1245
     38  CA        17.3340    6.9030   11.0100 C.3    50  LEU50       0.1561
     39  C         17.8910    7.1480   12.4130 C.2    50  LEU50       0.2260
     40  O         18.2080    6.2080   13.1420 O.2    50  LEU50      -0.2867
     41  CB        15.9630    6.2330   11.1120 C.3    50  LEU50       0.0270
     42  CG        14.8920    7.0530   11.8500 C.3    50  LEU50       0.0019
     43  CD1       14.5480    8.3140   11.0820 C.3    50  LEU50       0.0001
     44  CD2       13.6420    6.2250   12.0810 C.3    50  LEU50       0.0001
     45  N         17.7760   10.4220   15.7210 N.3    52  ALA52      -0.1245
     46  CA        17.1630   11.6700   16.1760 C.3    52  ALA52       0.1562
     47  C         17.6870   12.0570   17.5450 C.2    52  ALA52       0.2260
     48  O         17.9950   11.1940   18.3700 O.2    52  ALA52      -0.2867
     49  CB        15.6680   11.5430   16.2060 C.3    52  ALA52       0.0290
     50  N         15.8210   13.7720   24.4770 N.3    66  PHE66      -0.1241
     51  CA        15.1190   12.7690   23.6700 C.3    66  PHE66       0.1605
     52  C         16.0610   12.2720   22.5950 C.2    66  PHE66       0.2264
     53  O         16.7560   13.0670   21.9780 O.2    66  PHE66      -0.2867
     54  CB        13.8740   13.3970   23.0050 C.3    66  PHE66       0.0534
     55  CG        13.2140   12.5110   21.9670 C.ar   66  PHE66      -0.0203
     56  CD1       12.1590   11.6740   22.3150 C.ar   66  PHE66      -0.0042
     57  CD2       13.6570   12.5000   20.6580 C.ar   66  PHE66      -0.0042
     58  CE1       11.5560   10.8470   21.3750 C.ar   66  PHE66      -0.0003
     59  CE2       13.0520   11.6680   19.6980 C.ar   66  PHE66      -0.0003
     60  CZ        12.0020   10.8440   20.0630 C.ar   66  PHE66      -0.0000
     61  N         16.5550    9.0210   19.3140 N.3    68  VAL68      -0.1245
     62  CA        16.3540    7.7660   18.6160 C.3    68  VAL68       0.1561
     63  C         17.7370    7.2940   18.1570 C.2    68  VAL68       0.2260
     64  O         18.4080    7.9740   17.3770 O.2    68  VAL68      -0.2867
     65  CB        15.3980    7.9200   17.4100 C.3    68  VAL68       0.0252
     66  CG1       15.3680    6.6350   16.5830 C.3    68  VAL68       0.0019
     67  CG2       14.0090    8.2730   17.8850 C.3    68  VAL68       0.0019
     68  N         13.8800    4.2410   21.1050 N.3    73  ILE73      -0.1245
     69  CA        13.3620    5.5760   21.3910 C.3    73  ILE73       0.1561
     70  C         13.5410    5.7710   22.8890 C.2    73  ILE73       0.2260
     71  O         13.0070    4.9870   23.6720 O.2    73  ILE73      -0.2867
     72  CB        11.8630    5.6750   21.0300 C.3    73  ILE73       0.0252
     73  CG1       11.6650    5.4580   19.5200 C.3    73  ILE73       0.0019
     74  CG2       11.2790    7.0140   21.4620 C.3    73  ILE73       0.0019
     75  CD1       10.2160    5.1760   19.1250 C.3    73  ILE73       0.0001
     76  N         11.4650    1.0140   17.6230 N.3    87  ILE87      -0.1245
     77  CA        11.0000    1.3370   16.2790 C.3    87  ILE87       0.1561
     78  C         10.3490    0.1200   15.6300 C.2    87  ILE87       0.2260
     79  O          9.2250    0.2000   15.1300 O.2    87  ILE87      -0.2867
     80  CB        12.1630    1.8490   15.4000 C.3    87  ILE87       0.0252
     81  CG1       12.6130    3.2330   15.8800 C.3    87  ILE87       0.0019
     82  CG2       11.7480    1.9250   13.9360 C.3    87  ILE87       0.0019
     83  CD1       13.9260    3.6830   15.2810 C.3    87  ILE87       0.0001
     84  N          6.9690   -0.8510   17.4070 N.3    90  LEU90      -0.1245
     85  CA         5.9040    0.0660   16.9950 C.3    90  LEU90       0.1561
     86  C          5.5130   -0.1590   15.5290 C.2    90  LEU90       0.2260
     87  O          4.3400   -0.0790   15.1800 O.2    90  LEU90      -0.2867
     88  CB         6.3240    1.5250   17.2090 C.3    90  LEU90       0.0270
     89  CG         6.4620    1.9950   18.6610 C.3    90  LEU90       0.0019
     90  CD1        7.1480    3.3500   18.6980 C.3    90  LEU90       0.0001
     91  CD2        5.1060    2.0550   19.3610 C.3    90  LEU90       0.0001
     92  N          0.8920    6.8800    3.5660 N.3    99  GLN99      -0.1245
     93  CA        -0.2850    6.1740    4.0540 C.3    99  GLN99       0.1566
     94  C         -1.1280    5.8850    2.8260 C.2    99  GLN99       0.2260
     95  O         -0.8660    6.4610    1.7630 O.2    99  GLN99      -0.2867
     96  CB        -1.0700    7.0570    5.0300 C.3    99  GLN99       0.0367
     97  CG        -1.5160    8.4120    4.4510 C.3    99  GLN99       0.0905
     98  CD        -2.4660    9.1500    5.3730 C.2    99  GLN99       0.2608
     99  OE1       -2.0860    9.5770    6.4650 O.2    99  GLN99      -0.2717
    100  NE2       -3.7120    9.3030    4.9380 N.am   99  GLN99      -0.0878
    101  N         -9.1030   11.4910    7.2300 N.3   127  ILE127     -0.1245
    102  CA        -8.2490   10.3050    7.2330 C.3   127  ILE127      0.1561
    103  C         -9.0310    9.1270    7.8180 C.2   127  ILE127      0.2260
    104  O         -9.6250    9.2510    8.8820 O.2   127  ILE127     -0.2867
    105  CB        -6.9450   10.5760    8.0390 C.3   127  ILE127      0.0252
    106  CG1       -6.1730   11.7330    7.3870 C.3   127  ILE127      0.0019
    107  CG2       -6.0670    9.3270    8.1140 C.3   127  ILE127      0.0019
    108  CD1       -4.8320   12.0460    8.0330 C.3   127  ILE127      0.0001
    109  N         -1.3440    6.2800   14.1770 N.3   135  LEU135     -0.1245
    110  CA        -0.9310    7.4000   15.0200 C.3   135  LEU135      0.1561
    111  C         -1.5200    7.3090   16.4330 C.2   135  LEU135      0.2260
    112  O         -0.8760    7.6930   17.4110 O.2   135  LEU135     -0.2867
    113  CB        -1.4090    8.6940   14.3670 C.3   135  LEU135      0.0270
    114  CG        -0.5280    9.9350   14.4010 C.3   135  LEU135      0.0019
    115  CD1        0.9530    9.5900   14.2740 C.3   135  LEU135      0.0001
    116  CD2       -0.9840   10.8460   13.2780 C.3   135  LEU135      0.0001
    117  N         -7.8360   16.0840    9.1880 N.3   145  ALA145     -0.1231
    118  CA        -6.4280   16.3890    9.1720 C.3   145  ALA145      0.1694
    119  C         -6.1990   17.5850    8.2520 C.2   145  ALA145      0.2593
    120  O         -7.0850   17.9560    7.4570 O.2   145  ALA145     -0.2718
    121  CB        -5.6360   15.1830    8.6980 C.3   145  ALA145      0.0304
    122  N         -5.0210   18.1890    8.3820 N.am  146  THR146     -0.1939
    123  CA        -4.6330   19.3330    7.5690 C.3   146  THR146      0.2028
    124  C         -3.1510   19.2430    7.2290 C.2   146  THR146      0.2642
    125  O         -2.3580   18.7770    8.0480 O.2   146  THR146     -0.2714
    126  CB        -4.8700   20.6580    8.3100 C.3   146  THR146      0.1808
    127  OG1       -6.2060   20.6900    8.8320 O.3   146  THR146     -0.2208
    128  CG2       -4.6550   21.8730    7.3460 C.3   146  THR146      0.0379
    129  N         -2.7890   19.6520    6.0150 N.am  147  VAL147     -0.1977
    130  CA        -1.3830   19.7900    5.6400 C.3   147  VAL147      0.1596
    131  C         -1.1600   21.1800    5.0640 C.2   147  VAL147      0.2287
    132  O         -2.0640   21.7510    4.4430 O.2   147  VAL147     -0.2864
    133  CB        -0.9140   18.7250    4.6040 C.3   147  VAL147      0.0276
    134  CG1       -1.0400   17.3130    5.1850 C.3   147  VAL147      0.0022
    135  CG2       -1.6700   18.8390    3.2830 C.3   147  VAL147      0.0022
    136  N          1.7470   19.5860    9.3580 N.3   160  ALA160     -0.1231
    137  CA         0.6870   18.6010    9.2530 C.3   160  ALA160      0.1694
    138  C          0.0550   18.4500   10.6200 C.2   160  ALA160      0.2593
    139  O          0.7500   18.4260   11.6320 O.2   160  ALA160     -0.2718
    140  CB         1.2510   17.2810    8.7780 C.3   160  ALA160      0.0304
    141  N         -1.2620   18.3580   10.6620 N.am  161  SER161     -0.1938
    142  CA        -1.9350   18.1800   11.9260 C.3   161  SER161      0.2055
    143  C         -3.1860   17.3110   11.7890 C.2   161  SER161      0.2642
    144  O         -3.7650   17.1900   10.7090 O.2   161  SER161     -0.2714
    145  CB        -2.2610   19.5370   12.5670 C.3   161  SER161      0.2130
    146  OG        -3.3820   20.1400   11.9720 O.3   161  SER161     -0.2179
    147  N         -3.5600   16.6930   12.9010 N.am  162  ILE162     -0.1977
    148  CA        -4.7090   15.8220   12.9600 C.3   162  ILE162      0.1596
    149  C         -5.4730   16.1460   14.2370 C.2   162  ILE162      0.2287
    150  O         -4.8800   16.3760   15.2960 O.2   162  ILE162     -0.2864
    151  CB        -4.3100   14.3250   12.8660 C.3   162  ILE162      0.0276
    152  CG1       -5.5550   13.4360   12.7900 C.3   162  ILE162      0.0022
    153  CG2       -3.4060   13.9040   14.0230 C.3   162  ILE162      0.0022
    154  CD1       -5.2470   12.0000   12.4230 C.3   162  ILE162      0.0001
    155  N         -2.6100   16.6580   17.2670 N.3   169  ILE169     -0.1245
    156  CA        -1.1630   16.5550   17.0980 C.3   169  ILE169      0.1561
    157  C         -0.7880   17.4150   15.9070 C.2   169  ILE169      0.2260
    158  O         -1.4370   17.3610   14.8570 O.2   169  ILE169     -0.2867
    159  CB        -0.6960   15.1090   16.8450 C.3   169  ILE169      0.0252
    160  CG1       -1.1900   14.1800   17.9500 C.3   169  ILE169      0.0019
    161  CG2        0.8380   15.0480   16.7520 C.3   169  ILE169      0.0019
    162  CD1       -0.9530   12.6920   17.6830 C.3   169  ILE169      0.0001
    163  N          2.6420   18.7190   13.6200 N.3   171  LEU171     -0.1245
    164  CA         4.0330   18.4770   13.3060 C.3   171  LEU171      0.1561
    165  C          4.5020   19.5300   12.3270 C.2   171  LEU171      0.2260
    166  O          3.9540   19.6630   11.2360 O.2   171  LEU171     -0.2867
    167  CB         4.1870   17.0770   12.7250 C.3   171  LEU171      0.0270
    168  CG         5.6320   16.6280   12.6180 C.3   171  LEU171      0.0019
    169  CD1        5.7280   15.1410   12.9020 C.3   171  LEU171      0.0001
    170  CD2        6.2370   16.9860   11.2490 C.3   171  LEU171      0.0001
@<TRIPOS>BOND
     1    95    94    2
     2    94    93    1
     3   135   133    1
     4    92    93    1
     5    93    96    1
     6   132   131    2
     7    97    96    1
     8    97    98    1
     9   133   134    1
    10   133   130    1
    11   100    98   am
    12   131   130    1
    13    98    99    2
    14   130   129    1
    15   129   124   am
    16   124   123    1
    17   124   125    2
    18   101   102    1
    19   102   103    1
    20   102   105    1
    21   128   126    1
    22   106   108    1
    23   106   105    1
    24   120   119    2
    25   123   126    1
    26   123   122    1
    27   103   104    2
    28   105   107    1
    29   119   122   am
    30   119   118    1
    31   126   127    1
    32   121   118    1
    33   140   137    1
    34   118   117    1
    35   137   136    1
    36   137   138    1
    37    37    38    1
    38    33    32    2
    39   138   141   am
    40   138   139    2
    41   141   142    1
    42   144   143    2
    43    38    41    1
    44    38    39    1
    45    43    42    1
    46    41    42    1
    47   166   165    2
    48   170   168    1
    49    32    31    1
    50    35    34    1
    51   143   142    1
    52   143   147   am
    53    42    44    1
    54   142   145    1
    55   146   145    1
    56    34    31    1
    57    34    36    1
    58     7     5    1
    59   165   164    1
    60    39    40    2
    61   154   152    1
    62    31    30    1
    63   168   167    1
    64   168   169    1
    65   167   164    1
    66   152   151    1
    67   151   148    1
    68   151   153    1
    69   147   148    1
    70   148   149    1
    71   116   114    1
    72   164   163    1
    73     1     2    1
    74     5     2    1
    75     5     6    1
    76     2     3    1
    77    82    80    1
    78   109   110    1
    79   149   150    2
    80   115   114    1
    81   113   114    1
    82   113   110    1
    83   158   157    2
    84   110   111    1
    85     3     4    2
    86    26    25    2
    87    79    78    2
    88    87    86    2
    89    83    81    1
    90    80    81    1
    91    80    77    1
    92    86    85    1
    93    78    77    1
    94    45    46    1
    95   157   156    1
    96    25    24    1
    97    46    49    1
    98    46    47    1
    99    77    76    1
   100   111   112    2
   101    66    65    1
   102   161   159    1
   103   159   156    1
   104   159   160    1
   105    14    12    1
   106    85    88    1
   107    85    84    1
   108   156   155    1
   109    88    89    1
   110    28    27    1
   111    64    63    2
   112     8     9    1
   113    65    67    1
   114    65    62    1
   115    24    27    1
   116    24    23    1
   117    27    29    1
   118    47    48    2
   119     9    12    1
   120     9    10    1
   121   162   160    1
   122    12    13    1
   123    63    62    1
   124    62    61    1
   125    89    90    1
   126    89    91    1
   127    10    11    2
   128    22    20    1
   129    75    73    1
   130    73    72    1
   131    59    60   ar
   132    59    57   ar
   133    21    20    1
   134    60    58   ar
   135    20    19    1
   136    57    55   ar
   137    72    69    1
   138    72    74    1
   139    68    69    1
   140    19    16    1
   141    58    56   ar
   142    69    70    1
   143    16    15    1
   144    16    17    1
   145    55    56   ar
   146    55    54    1
   147    53    52    2
   148    52    51    1
   149    17    18    2
   150    70    71    2
   151    54    51    1
   152    51    50    1
