@<TRIPOS>MOLECULE
tmp/2byoA00.pdb
 186 164 0 0 0
SMALL
GASTEIGER

@<TRIPOS>ATOM
      1  N         -0.3590   16.8910   -2.5160 N.3     9  ILE9       -0.1245
      2  CA         0.0820   16.2480   -1.2700 C.3     9  ILE9        0.1561
      3  C          1.1960   15.2210   -1.5460 C.2     9  ILE9        0.2260
      4  O          2.1670   15.1340   -0.7900 O.2     9  ILE9       -0.2867
      5  CB        -1.0730   15.5600   -0.5190 C.3     9  ILE9        0.0252
      6  CG1       -2.1310   16.5890   -0.1050 C.3     9  ILE9        0.0019
      7  CG2       -0.5360   14.8240    0.7210 C.3     9  ILE9        0.0019
      8  CD1       -3.4400   15.9670    0.3000 C.3     9  ILE9        0.0001
      9  N          4.9560   14.8050    0.1560 N.3    13  LEU13      -0.1245
     10  CA         5.3950   13.5470    0.7630 C.3    13  LEU13       0.1561
     11  C          6.6670   13.0410    0.0940 C.2    13  LEU13       0.2260
     12  O          7.5670   12.5520    0.7700 O.2    13  LEU13      -0.2867
     13  CB         4.2890   12.4890    0.6970 C.3    13  LEU13       0.0270
     14  CG         3.0180   12.7670    1.5150 C.3    13  LEU13       0.0019
     15  CD1        2.0700   11.5910    1.4320 C.3    13  LEU13       0.0001
     16  CD2        3.3420   13.0690    2.9740 C.3    13  LEU13       0.0001
     17  N          9.4280   15.1570    1.3450 N.3    16  THR16      -0.1203
     18  CA         9.7410   14.6800    2.6860 C.3    16  THR16       0.1994
     19  C         10.5960   13.4100    2.6600 C.2    16  THR16       0.2617
     20  O         11.5770   13.2940    3.4080 O.2    16  THR16      -0.2717
     21  CB         8.4480   14.4490    3.5060 C.3    16  THR16       0.1784
     22  OG1        7.7090   15.6730    3.5650 O.3    16  THR16      -0.2211
     23  CG2        8.7590   14.0000    4.9100 C.3    16  THR16       0.0376
     24  N         10.2200   12.4640    1.8040 N.am   17  LYS17      -0.1979
     25  CA        10.9750   11.2270    1.6440 C.3    17  LYS17       0.1596
     26  C         12.4350   11.4380    1.1900 C.2    17  LYS17       0.2287
     27  O         13.3170   10.6520    1.5420 O.2    17  LYS17      -0.2864
     28  CB        10.2780   10.3070    0.6410 C.3    17  LYS17       0.0298
     29  CG         9.1450    9.5060    1.2150 C.3    17  LYS17       0.0038
     30  CD         8.7440    8.3730    0.2390 C.3    17  LYS17       0.0206
     31  CE         7.5950    7.5150    0.7880 C.3    17  LYS17       0.1093
     32  NZ         7.2650    6.3470   -0.1130 N.3    17  LYS17      -0.1314
     33  N         14.4820   13.9500    1.9370 N.3    19  LEU19      -0.1245
     34  CA        15.2980   14.7210    2.8860 C.3    19  LEU19       0.1561
     35  C         16.4520   13.9140    3.4750 C.2    19  LEU19       0.2260
     36  O         16.3010   12.7350    3.7980 O.2    19  LEU19      -0.2867
     37  CB        14.4210   15.2320    4.0370 C.3    19  LEU19       0.0270
     38  CG        13.3670   16.2710    3.6680 C.3    19  LEU19       0.0019
     39  CD1       12.3810   16.4710    4.8080 C.3    19  LEU19       0.0001
     40  CD2       14.0300   17.5940    3.3020 C.3    19  LEU19       0.0001
     41  N         16.2070   17.0100    8.8130 N.3    22  VAL22      -0.1245
     42  CA        15.1250   17.9490    9.0450 C.3    22  VAL22       0.1561
     43  C         15.0010   18.1930   10.5540 C.2    22  VAL22       0.2260
     44  O         15.4160   17.3610   11.3470 O.2    22  VAL22      -0.2867
     45  CB        13.7830   17.4050    8.4400 C.3    22  VAL22       0.0252
     46  CG1       13.3110   16.1570    9.1730 C.3    22  VAL22       0.0019
     47  CG2       12.6930   18.4670    8.4420 C.3    22  VAL22       0.0019
     48  N         12.1390   18.7640   13.4360 N.3    24  VAL24      -0.1245
     49  CA        10.7100   18.5610   13.6660 C.3    24  VAL24       0.1561
     50  C         10.2920   19.0910   15.0420 C.2    24  VAL24       0.2260
     51  O         10.9480   18.8100   16.0690 O.2    24  VAL24      -0.2867
     52  CB        10.3050   17.0750   13.5450 C.3    24  VAL24       0.0252
     53  CG1        8.8790   16.8760   13.9940 C.3    24  VAL24       0.0019
     54  CG2       10.4270   16.6020   12.1040 C.3    24  VAL24       0.0019
     55  N         16.5410   15.3690   13.0730 N.3    45  VAL45      -0.1245
     56  CA        16.4040   14.0360   12.5040 C.3    45  VAL45       0.1561
     57  C         17.3750   13.8640   11.3490 C.2    45  VAL45       0.2260
     58  O         17.4620   14.7210   10.4650 O.2    45  VAL45      -0.2867
     59  CB        14.9690   13.7760   11.9840 C.3    45  VAL45       0.0252
     60  CG1       14.8580   12.3690   11.3850 C.3    45  VAL45       0.0019
     61  CG2       13.9490   13.9500   13.1000 C.3    45  VAL45       0.0019
     62  N         17.9070   11.0820    8.3360 N.3    47  ALA47      -0.1245
     63  CA        17.0260   10.0930    7.7000 C.3    47  ALA47       0.1562
     64  C         17.6450    8.7040    7.5940 C.2    47  ALA47       0.2260
     65  O         16.9590    7.7140    7.8140 O.2    47  ALA47      -0.2867
     66  CB        16.5720   10.5770    6.3160 C.3    47  ALA47       0.0290
     67  N         18.2610    6.1060   10.2130 N.3    50  LEU50      -0.1245
     68  CA        17.3340    6.9030   11.0100 C.3    50  LEU50       0.1561
     69  C         17.8910    7.1480   12.4130 C.2    50  LEU50       0.2260
     70  O         18.2080    6.2080   13.1420 O.2    50  LEU50      -0.2867
     71  CB        15.9630    6.2330   11.1120 C.3    50  LEU50       0.0270
     72  CG        14.8920    7.0530   11.8500 C.3    50  LEU50       0.0019
     73  CD1       14.5480    8.3140   11.0820 C.3    50  LEU50       0.0001
     74  CD2       13.6420    6.2250   12.0810 C.3    50  LEU50       0.0001
     75  N          6.6060    4.6510    3.0410 N.3    96  GLY96      -0.1210
     76  CA         6.6880    4.8220    4.4920 C.3    96  GLY96       0.1956
     77  C          5.6160    5.7630    5.0110 C.2    96  GLY96       0.2611
     78  O          4.6370    5.3260    5.6220 O.2    96  GLY96      -0.2717
     79  N          5.8040    7.0590    4.7670 N.am   97  VAL97      -0.1979
     80  CA         4.8060    8.0680    5.1430 C.3    97  VAL97       0.1595
     81  C          3.6920    8.2080    4.0970 C.2    97  VAL97       0.2287
     82  O          2.7050    8.9150    4.3350 O.2    97  VAL97      -0.2864
     83  CB         5.4390    9.4590    5.4670 C.3    97  VAL97       0.0276
     84  CG1        6.4110    9.3340    6.6420 C.3    97  VAL97       0.0022
     85  CG2        6.1310   10.0830    4.2430 C.3    97  VAL97       0.0022
     86  N          0.8920    6.8800    3.5660 N.3    99  GLN99      -0.1245
     87  CA        -0.2850    6.1740    4.0540 C.3    99  GLN99       0.1566
     88  C         -1.1280    5.8850    2.8260 C.2    99  GLN99       0.2260
     89  O         -0.8660    6.4610    1.7630 O.2    99  GLN99      -0.2867
     90  CB        -1.0700    7.0570    5.0300 C.3    99  GLN99       0.0367
     91  CG        -1.5160    8.4120    4.4510 C.3    99  GLN99       0.0905
     92  CD        -2.4660    9.1500    5.3730 C.2    99  GLN99       0.2608
     93  OE1       -2.0860    9.5770    6.4650 O.2    99  GLN99      -0.2717
     94  NE2       -3.7120    9.3030    4.9380 N.am   99  GLN99      -0.0878
     95  N         -3.1280    7.0870    0.8490 N.3   101  LEU101     -0.1245
     96  CA        -3.6080    8.4250    0.5130 C.3   101  LEU101      0.1561
     97  C         -4.9230    8.3570   -0.2380 C.2   101  LEU101      0.2260
     98  O         -5.7350    9.2660   -0.1440 O.2   101  LEU101     -0.2867
     99  CB        -2.5770    9.1780   -0.3410 C.3   101  LEU101      0.0270
    100  CG        -1.6560   10.1750    0.3560 C.3   101  LEU101      0.0019
    101  CD1       -0.6390   10.6850   -0.6400 C.3   101  LEU101      0.0001
    102  CD2       -2.4470   11.3340    0.9460 C.3   101  LEU101      0.0001
    103  N         -7.9560    8.6880    1.9820 N.3   104  VAL104     -0.1245
    104  CA        -8.1620   10.0920    2.3220 C.3   104  VAL104      0.1561
    105  C         -9.3360   10.6090    1.4860 C.2   104  VAL104      0.2260
    106  O         -9.3650   10.4440    0.2630 O.2   104  VAL104     -0.2867
    107  CB        -6.9090   10.9630    2.0810 C.3   104  VAL104      0.0252
    108  CG1       -7.2040   12.4330    2.3660 C.3   104  VAL104      0.0019
    109  CG2       -5.7620   10.4860    2.9500 C.3   104  VAL104      0.0019
    110  N        -10.9060   16.0920    0.3530 N.3   107  LEU107     -0.1245
    111  CA        -9.7890   17.0220    0.2320 C.3   107  LEU107      0.1561
    112  C        -10.3290   18.3950   -0.1260 C.2   107  LEU107      0.2260
    113  O        -11.1300   18.5130   -1.0270 O.2   107  LEU107     -0.2867
    114  CB        -8.7800   16.5510   -0.8270 C.3   107  LEU107      0.0270
    115  CG        -7.9410   15.3200   -0.4470 C.3   107  LEU107      0.0019
    116  CD1       -7.0160   14.9350   -1.5970 C.3   107  LEU107      0.0001
    117  CD2       -7.1340   15.5780    0.8170 C.3   107  LEU107      0.0001
    118  N         -4.4410   22.4680    2.8960 N.3   123  ILE123     -0.1231
    119  CA        -5.3640   21.4820    2.3660 C.3   123  ILE123      0.1692
    120  C         -5.8460   20.6260    3.5160 C.2   123  ILE123      0.2593
    121  O         -5.0430   20.0470    4.2420 O.2   123  ILE123     -0.2718
    122  CB        -4.7190   20.5750    1.2890 C.3   123  ILE123      0.0266
    123  CG1       -4.1700   21.4210    0.1440 C.3   123  ILE123      0.0019
    124  CG2       -5.7550   19.5630    0.7370 C.3   123  ILE123      0.0020
    125  CD1       -3.4330   20.6340   -0.9070 C.3   123  ILE123      0.0001
    126  N         -7.1630   20.5670    3.6790 N.am  124  THR124     -0.1939
    127  CA        -7.7880   19.7420    4.6920 C.3   124  THR124      0.2028
    128  C         -8.3100   18.4780    4.0500 C.2   124  THR124      0.2642
    129  O         -8.5420   18.4260    2.8520 O.2   124  THR124     -0.2714
    130  CB        -8.9710   20.4670    5.3600 C.3   124  THR124      0.1808
    131  OG1       -9.8960   20.8980    4.3530 O.3   124  THR124     -0.2208
    132  CG2       -8.4900   21.6720    6.1390 C.3   124  THR124      0.0379
    133  N         -8.5330   17.4660    4.8660 N.am  125  GLY125     -0.1954
    134  CA        -9.0100   16.1780    4.3730 C.3   125  GLY125      0.1869
    135  C         -9.4120   15.3210    5.5450 C.2   125  GLY125      0.2309
    136  O         -9.1690   15.6930    6.6920 O.2   125  GLY125     -0.2863
    137  N         -9.1030   11.4910    7.2300 N.3   127  ILE127     -0.1245
    138  CA        -8.2490   10.3050    7.2330 C.3   127  ILE127      0.1561
    139  C         -9.0310    9.1270    7.8180 C.2   127  ILE127      0.2260
    140  O         -9.6250    9.2510    8.8820 O.2   127  ILE127     -0.2867
    141  CB        -6.9450   10.5760    8.0390 C.3   127  ILE127      0.0252
    142  CG1       -6.1730   11.7330    7.3870 C.3   127  ILE127      0.0019
    143  CG2       -6.0670    9.3270    8.1140 C.3   127  ILE127      0.0019
    144  CD1       -4.8320   12.0460    8.0330 C.3   127  ILE127      0.0001
    145  N         -7.8360   16.0840    9.1880 N.3   145  ALA145     -0.1245
    146  CA        -6.4280   16.3890    9.1720 C.3   145  ALA145      0.1562
    147  C         -6.1990   17.5850    8.2520 C.2   145  ALA145      0.2260
    148  O         -7.0850   17.9560    7.4570 O.2   145  ALA145     -0.2867
    149  CB        -5.6360   15.1830    8.6980 C.3   145  ALA145      0.0290
    150  N         -2.7890   19.6520    6.0150 N.3   147  VAL147     -0.1245
    151  CA        -1.3830   19.7900    5.6400 C.3   147  VAL147      0.1561
    152  C         -1.1600   21.1800    5.0640 C.2   147  VAL147      0.2260
    153  O         -2.0640   21.7510    4.4430 O.2   147  VAL147     -0.2867
    154  CB        -0.9140   18.7250    4.6040 C.3   147  VAL147      0.0252
    155  CG1       -1.0400   17.3130    5.1850 C.3   147  VAL147      0.0019
    156  CG2       -1.6700   18.8390    3.2830 C.3   147  VAL147      0.0019
    157  N          6.6690   19.9010    3.2840 N.3   157  LEU157     -0.1245
    158  CA         5.5350   19.7170    4.1730 C.3   157  LEU157      0.1561
    159  C          5.8190   20.5340    5.4330 C.2   157  LEU157      0.2260
    160  O          6.3810   20.0160    6.4100 O.2   157  LEU157     -0.2867
    161  CB         5.3390   18.2290    4.4900 C.3   157  LEU157      0.0270
    162  CG         4.0970   17.8870    5.3270 C.3   157  LEU157      0.0019
    163  CD1        2.7930   18.3440    4.6540 C.3   157  LEU157      0.0001
    164  CD2        4.0440   16.3750    5.5780 C.3   157  LEU157      0.0001
    165  N          1.7470   19.5860    9.3580 N.3   160  ALA160     -0.1245
    166  CA         0.6870   18.6010    9.2530 C.3   160  ALA160      0.1562
    167  C          0.0550   18.4500   10.6200 C.2   160  ALA160      0.2260
    168  O          0.7500   18.4260   11.6320 O.2   160  ALA160     -0.2867
    169  CB         1.2510   17.2810    8.7780 C.3   160  ALA160      0.0290
    170  N          2.6420   18.7190   13.6200 N.3   171  LEU171     -0.1245
    171  CA         4.0330   18.4770   13.3060 C.3   171  LEU171      0.1561
    172  C          4.5020   19.5300   12.3270 C.2   171  LEU171      0.2260
    173  O          3.9540   19.6630   11.2360 O.2   171  LEU171     -0.2867
    174  CB         4.1870   17.0770   12.7250 C.3   171  LEU171      0.0270
    175  CG         5.6320   16.6280   12.6180 C.3   171  LEU171      0.0019
    176  CD1        5.7280   15.1410   12.9020 C.3   171  LEU171      0.0001
    177  CD2        6.2370   16.9860   11.2490 C.3   171  LEU171      0.0001
    178  N          7.7970   21.0630   10.2520 N.3   173  GLN173     -0.1245
    179  CA         9.1610   20.8480    9.7530 C.3   173  GLN173      0.1566
    180  C          9.8890   22.1720    9.4940 C.2   173  GLN173      0.2260
    181  O          9.2740   23.1840    9.1300 O.2   173  GLN173     -0.2867
    182  CB         9.1460   20.0560    8.4360 C.3   173  GLN173      0.0367
    183  CG         8.5990   18.6360    8.5230 C.3   173  GLN173      0.0905
    184  CD         8.6210   17.9120    7.1860 C.2   173  GLN173      0.2608
    185  OE1        9.2760   18.3450    6.2310 O.2   173  GLN173     -0.2717
    186  NE2        7.9150   16.7930    7.1170 N.am  173  GLN173     -0.0878
@<TRIPOS>BOND
     1     1     2    1
     2   116   115    1
     3     3     2    1
     4     3     4    2
     5     2     5    1
     6   113   112    2
     7   125   123    1
     8   114   115    1
     9   114   111    1
    10   101   100    1
    11     5     6    1
    12     5     7    1
    13   115   117    1
    14    99   100    1
    15    99    96    1
    16    97    98    2
    17    97    96    1
    18   112   111    1
    19    32    31    1
    20     6     8    1
    21    11    10    1
    22    11    12    2
    23   123   122    1
    24     9    10    1
    25   111   110    1
    26    30    31    1
    27    30    29    1
    28   106   105    2
    29   100   102    1
    30    96    95    1
    31    28    29    1
    32    28    25    1
    33    13    10    1
    34    13    14    1
    35   124   122    1
    36    26    27    2
    37    26    25    1
    38   122   119    1
    39    17    18    1
    40    15    14    1
    41   105   104    1
    42    14    16    1
    43    25    24    1
    44    89    88    2
    45    24    19   am
    46    33    34    1
    47   103   104    1
    48   107   104    1
    49   107   108    1
    50   107   109    1
    51   119   118    1
    52   119   120    1
    53    19    18    1
    54    19    20    2
    55    18    21    1
    56    88    87    1
    57   129   128    2
    58    34    35    1
    59    34    37    1
    60    75    76    1
    61   156   154    1
    62   157   158    1
    63    40    38    1
    64    35    36    2
    65    21    22    1
    66    21    23    1
    67   120   126   am
    68   120   121    2
    69    86    87    1
    70    38    37    1
    71    38    39    1
    72   126   127    1
    73   128   127    1
    74   128   133   am
    75    87    90    1
    76    81    82    2
    77    81    80    1
    78   158   161    1
    79   158   159    1
    80    85    83    1
    81   131   130    1
    82   134   133    1
    83   134   135    1
    84   153   152    2
    85    91    90    1
    86    91    92    1
    87   161   162    1
    88    76    77    1
    89   154   155    1
    90   154   151    1
    91   163   162    1
    92   127   130    1
    93    79    77   am
    94    79    80    1
    95    94    92   am
    96    77    78    2
    97   152   151    1
    98    80    83    1
    99   162   164    1
   100   130   132    1
   101    92    93    2
   102   159   160    2
   103    83    84    1
   104   135   136    2
   105   151   150    1
   106   185   184    2
   107    66    63    1
   108   186   184   am
   109   184   183    1
   110   137   138    1
   111   138   139    1
   112   138   141    1
   113   142   144    1
   114   142   141    1
   115   148   147    2
   116    64    63    1
   117    64    65    2
   118    63    62    1
   119   139   140    2
   120   141   143    1
   121   147   146    1
   122   182   183    1
   123   182   179    1
   124    45    47    1
   125    45    42    1
   126    45    46    1
   127   149   146    1
   128   169   166    1
   129    41    42    1
   130    42    43    1
   131   181   180    2
   132   146   145    1
   133   166   165    1
   134   166   167    1
   135   180   179    1
   136   179   178    1
   137    67    68    1
   138    58    57    2
   139    43    44    2
   140   167   168    2
   141    68    71    1
   142    68    69    1
   143    73    72    1
   144    71    72    1
   145   173   172    2
   146   177   175    1
   147    57    56    1
   148    60    59    1
   149    72    74    1
   150    59    56    1
   151    59    61    1
   152    54    52    1
   153   172   171    1
   154    69    70    2
   155    56    55    1
   156   175   174    1
   157   175   176    1
   158   174   171    1
   159   171   170    1
   160    48    49    1
   161    52    49    1
   162    52    53    1
   163    49    50    1
   164    50    51    2
