@<TRIPOS>MOLECULE
tmp/2bysD00.pdb
 122 123 0 0 0
SMALL
GASTEIGER

@<TRIPOS>ATOM
      1  N         -2.0470  -14.5790   14.9020 N.3    88  THR88      -0.1218
      2  CA        -2.4720  -14.6160   13.5200 C.3    88  THR88       0.1862
      3  C         -3.7380  -15.4670   13.4120 C.2    88  THR88       0.2287
      4  O         -3.8540  -16.4970   14.0730 O.2    88  THR88      -0.2866
      5  CB        -1.3490  -15.2420   12.6550 C.3    88  THR88       0.1770
      6  OG1       -0.0960  -14.5840   12.9290 O.3    88  THR88      -0.2211
      7  CG2       -1.6640  -15.1500   11.1750 C.3    88  THR88       0.0375
      8  N         -5.7580  -18.1510   11.5290 N.3    90  TYR90      -0.1241
      9  CA        -5.2820  -19.3090   10.7620 C.3    90  TYR90       0.1605
     10  C         -5.8660  -19.3890    9.3520 C.2    90  TYR90       0.2264
     11  O         -5.1560  -19.7430    8.4170 O.2    90  TYR90      -0.2867
     12  CB        -5.6080  -20.6030   11.5260 C.3    90  TYR90       0.0534
     13  CG        -5.1000  -21.8840   10.8850 C.ar   90  TYR90      -0.0201
     14  CD1       -3.7840  -22.2790   11.0330 C.ar   90  TYR90      -0.0009
     15  CD2       -5.9460  -22.7140   10.1660 C.ar   90  TYR90      -0.0009
     16  CE1       -3.3130  -23.4490   10.4770 C.ar   90  TYR90       0.0417
     17  CE2       -5.4750  -23.8940    9.5910 C.ar   90  TYR90       0.0417
     18  CZ        -4.1500  -24.2540    9.7560 C.ar   90  TYR90       0.1957
     19  OH        -3.6560  -25.4190    9.1900 O.3    90  TYR90      -0.2866
     20  N         -9.5400  -19.7210   14.0090 N.3   140  LYS140     -0.1231
     21  CA        -8.6810  -19.8520   15.1890 C.3   140  LYS140      0.1693
     22  C         -7.4840  -18.9350   15.0710 C.2   140  LYS140      0.2592
     23  O         -6.9710  -18.7170   13.9730 O.2   140  LYS140     -0.2718
     24  CB        -8.2500  -21.3090   15.4350 C.3   140  LYS140      0.0285
     25  CG        -7.4290  -21.9590   14.3290 C.3   140  LYS140      0.0035
     26  CD        -7.1860  -23.4420   14.6220 C.3   140  LYS140      0.0206
     27  CE        -6.5150  -24.1330   13.4470 C.3   140  LYS140      0.1093
     28  NZ        -6.2110  -25.5610   13.6990 N.3   140  LYS140     -0.1314
     29  N         -7.0640  -18.3960   16.2200 N.am  141  PHE141     -0.1962
     30  CA        -5.9720  -17.4320   16.3080 C.3   141  PHE141      0.1771
     31  C         -4.8560  -17.9970   17.1690 C.2   141  PHE141      0.2620
     32  O         -5.1130  -18.6330   18.1870 O.2   141  PHE141     -0.2715
     33  CB        -6.4550  -16.1180   16.9490 C.3   141  PHE141      0.0574
     34  CG        -7.5300  -15.4060   16.1730 C.ar  141  PHE141     -0.0200
     35  CD1       -7.2350  -14.2800   15.4240 C.ar  141  PHE141     -0.0042
     36  CD2       -8.8360  -15.8530   16.2040 C.ar  141  PHE141     -0.0042
     37  CE1       -8.2230  -13.6160   14.7180 C.ar  141  PHE141     -0.0003
     38  CE2       -9.8330  -15.1920   15.4930 C.ar  141  PHE141     -0.0003
     39  CZ        -9.5240  -14.0760   14.7520 C.ar  141  PHE141     -0.0000
     40  N         -3.6120  -17.7370   16.7780 N.am  142  GLY142     -0.1940
     41  CA        -2.4800  -18.1980   17.5510 C.3   142  GLY142      0.2014
     42  C         -1.1720  -17.6360   17.0490 C.2   142  GLY142      0.2640
     43  O         -1.1160  -16.9780   16.0010 O.2   142  GLY142     -0.2714
     44  N         -0.1160  -17.8850   17.8150 N.am  143  SER143     -0.1935
     45  CA         1.2210  -17.5210   17.3900 C.3   143  SER143      0.2055
     46  C          1.5730  -18.3350   16.1570 C.2   143  SER143      0.2643
     47  O          1.3360  -19.5480   16.1210 O.2   143  SER143     -0.2714
     48  CB         2.2500  -17.7990   18.4760 C.3   143  SER143      0.2130
     49  OG         3.5510  -17.6520   17.9400 O.3   143  SER143     -0.2179
     50  N          2.1230  -17.6620   15.1500 N.am  144  TRP144     -0.1959
     51  CA         2.5360  -18.3380   13.9340 C.3   144  TRP144      0.1771
     52  C          3.7540  -19.2270   14.1740 C.2   144  TRP144      0.2619
     53  O          3.7690  -20.3630   13.7320 O.2   144  TRP144     -0.2715
     54  CB         2.8000  -17.3330   12.8070 C.3   144  TRP144      0.0590
     55  CG         2.8600  -17.9900   11.4680 C.ar  144  TRP144      0.0006
     56  CD1        3.9810  -18.2740   10.7460 C.ar  144  TRP144      0.0946
     57  CD2        1.7510  -18.4690   10.6950 C.ar  144  TRP144      0.0152
     58  NE1        3.6430  -18.8940    9.5740 N.ar  144  TRP144     -0.2442
     59  CE2        2.2790  -19.0250    9.5130 C.ar  144  TRP144      0.0810
     60  CE3        0.3640  -18.4770   10.8880 C.ar  144  TRP144      0.0012
     61  CZ2        1.4730  -19.5870    8.5290 C.ar  144  TRP144      0.0191
     62  CZ3       -0.4430  -19.0320    9.9090 C.ar  144  TRP144      0.0001
     63  CH2        0.1120  -19.5790    8.7430 C.ar  144  TRP144      0.0015
     64  N          4.7550  -18.7240   14.8950 N.am  145  VAL145     -0.1977
     65  CA         6.0250  -19.4370   15.0550 C.3   145  VAL145      0.1596
     66  C          6.3430  -19.9550   16.4790 C.2   145  VAL145      0.2287
     67  O          7.3850  -20.5760   16.6700 O.2   145  VAL145     -0.2864
     68  CB         7.2360  -18.5680   14.5620 C.3   145  VAL145      0.0276
     69  CG1        7.0970  -18.2190   13.0850 C.3   145  VAL145      0.0022
     70  CG2        7.3840  -17.3010   15.3810 C.3   145  VAL145      0.0022
     71  N          0.6050  -29.4710   14.3660 N.3   185  TYR185     -0.1241
     72  CA         0.7180  -28.9960   12.9850 C.3   185  TYR185      0.1605
     73  C          1.8530  -29.7580   12.2960 C.2   185  TYR185      0.2264
     74  O          2.8360  -30.1210   12.9390 O.2   185  TYR185     -0.2867
     75  CB         0.9090  -27.4650   12.9660 C.3   185  TYR185      0.0534
     76  CG        -0.3150  -26.7650   13.5320 C.ar  185  TYR185     -0.0201
     77  CD1       -0.4770  -26.5980   14.9100 C.ar  185  TYR185     -0.0009
     78  CD2       -1.3440  -26.3460   12.6970 C.ar  185  TYR185     -0.0009
     79  CE1       -1.6190  -26.0070   15.4320 C.ar  185  TYR185      0.0417
     80  CE2       -2.4830  -25.7490   13.2090 C.ar  185  TYR185      0.0417
     81  CZ        -2.6180  -25.5840   14.5750 C.ar  185  TYR185      0.1957
     82  OH        -3.7570  -25.0010   15.0760 O.3   185  TYR185     -0.2866
     83  N          4.3610  -29.2060   10.4700 N.3   187  CYS187     -0.1221
     84  CA         5.7320  -28.6910   10.5300 C.3   187  CYS187      0.1808
     85  C          6.5320  -29.2060   11.7150 C.2   187  CYS187      0.2601
     86  O          7.7510  -29.3640   11.6250 O.2   187  CYS187     -0.2717
     87  CB         5.7150  -27.1620   10.6380 C.3   187  CYS187      0.0970
     88  SG         4.9940  -26.5400   12.1990 S.3   187  CYS187     -0.0800
     89  N          5.8420  -29.4490   12.8250 N.am  188  CYS188     -0.1970
     90  CA         6.4630  -29.3640   14.1310 C.3   188  CYS188      0.1712
     91  C          6.0040  -30.4860   15.0690 C.2   188  CYS188      0.2296
     92  O          4.8530  -30.9110   15.0060 O.2   188  CYS188     -0.2864
     93  CB         6.1180  -27.9900   14.7150 C.3   188  CYS188      0.0983
     94  SG         6.5050  -26.5890   13.5930 S.3   188  CYS188     -0.0798
     95  N          0.6620  -26.3460   19.2860 N.3   192  TYR192     -0.1227
     96  CA         0.4970  -24.8980   19.3370 C.3   192  TYR192      0.1736
     97  C         -0.8420  -24.5980   19.9880 C.2   192  TYR192      0.2595
     98  O         -1.7840  -25.3850   19.8770 O.2   192  TYR192     -0.2718
     99  CB         0.5370  -24.2970   17.9260 C.3   192  TYR192      0.0548
    100  CG         1.9200  -24.1300   17.3340 C.ar  192  TYR192     -0.0200
    101  CD1        2.3960  -22.8740   16.9740 C.ar  192  TYR192     -0.0009
    102  CD2        2.7510  -25.2340   17.1180 C.ar  192  TYR192     -0.0009
    103  CE1        3.6670  -22.7130   16.4190 C.ar  192  TYR192      0.0417
    104  CE2        4.0310  -25.0810   16.5700 C.ar  192  TYR192      0.0417
    105  CZ         4.4740  -23.8150   16.2150 C.ar  192  TYR192      0.1957
    106  OH         5.7330  -23.6590   15.6760 O.3   192  TYR192     -0.2866
    107  N         -0.9260  -23.4540   20.6610 N.am  193  ILE193     -0.1966
    108  CA        -2.1650  -23.0510   21.3130 C.3   193  ILE193      0.1727
    109  C         -2.9640  -22.1200   20.3950 C.2   193  ILE193      0.2616
    110  O         -2.3970  -21.2570   19.7190 O.2   193  ILE193     -0.2715
    111  CB        -1.9010  -22.3440   22.6700 C.3   193  ILE193      0.0290
    112  CG1       -0.8130  -23.0660   23.4830 C.3   193  ILE193      0.0022
    113  CG2       -3.1810  -22.2570   23.4780 C.3   193  ILE193      0.0023
    114  CD1       -1.1010  -24.5200   23.7890 C.3   193  ILE193      0.0001
    115  N         -4.2800  -22.3030   20.3650 N.am  194  ASP194     -0.1971
    116  CA        -5.1420  -21.3770   19.6560 C.3   194  ASP194      0.1709
    117  C         -6.3470  -20.9710   20.4870 C.2   194  ASP194      0.2293
    118  O         -6.7000  -21.6390   21.4690 O.2   194  ASP194     -0.2864
    119  CB        -5.5680  -21.9330   18.2860 C.3   194  ASP194      0.1436
    120  CG        -6.5890  -23.0680   18.3760 C.2   194  ASP194      0.3671
    121  OD1       -6.1940  -24.2360   18.1540 O.co2 194  ASP194     -0.2456
    122  OD2       -7.7860  -22.8000   18.6330 O.co2 194  ASP194     -0.2456
@<TRIPOS>BOND
     1    11    10    2
     2    61    63   ar
     3    61    59   ar
     4    63    62   ar
     5    19    18    1
     6    10     9    1
     7    59    58   ar
     8    59    57   ar
     9    58    56   ar
    10    17    18   ar
    11    17    15   ar
    12    18    16   ar
    13    62    60   ar
    14    15    13   ar
    15    83    84    1
    16    16    14   ar
    17    84    87    1
    18    84    85    1
    19    87    88    1
    20    57    60   ar
    21    57    55   ar
    22    56    55   ar
    23     9    12    1
    24     9     8    1
    25    13    14   ar
    26    13    12    1
    27     7     5    1
    28    55    54    1
    29    86    85    2
    30    85    89   am
    31    88    94    1
    32    73    74    2
    33    73    72    1
    34     5     6    1
    35     5     2    1
    36    78    80   ar
    37    78    76   ar
    38    54    51    1
    39    89    90    1
    40    75    72    1
    41    75    76    1
    42    72    71    1
    43    69    68    1
    44    80    81   ar
    45     3     2    1
    46     3     4    2
    47    27    28    1
    48    27    26    1
    49     2     1    1
    50    76    77   ar
    51    94    93    1
    52    53    52    2
    53    51    52    1
    54    51    50    1
    55    23    22    2
    56    20    21    1
    57    90    93    1
    58    90    91    1
    59    52    64   am
    60    25    26    1
    61    25    24    1
    62    68    65    1
    63    68    70    1
    64    81    82    1
    65    81    79   ar
    66    37    39   ar
    67    37    35   ar
    68    39    38   ar
    69    64    65    1
    70    77    79   ar
    71    92    91    2
    72    65    66    1
    73    22    21    1
    74    22    29   am
    75    50    46   am
    76    21    24    1
    77    35    34   ar
    78    38    36   ar
    79   106   105    1
    80    43    42    2
    81    47    46    2
    82    46    45    1
    83    34    36   ar
    84    34    33    1
    85   105   103   ar
    86   105   104   ar
    87    29    30    1
    88    30    33    1
    89    30    31    1
    90   103   101   ar
    91    66    67    2
    92   104   102   ar
    93    40    31   am
    94    40    41    1
    95   101   100   ar
    96    42    41    1
    97    42    44   am
    98   102   100   ar
    99    31    32    2
   100   100    99    1
   101    45    44    1
   102    45    48    1
   103    99    96    1
   104    49    48    1
   105   121   120   ar
   106   119   120    1
   107   119   116    1
   108   120   122   ar
   109    95    96    1
   110    96    97    1
   111   116   115    1
   112   116   117    1
   113   110   109    2
   114    98    97    2
   115    97   107   am
   116   115   109   am
   117   109   108    1
   118   117   118    2
   119   107   108    1
   120   108   111    1
   121   111   113    1
   122   111   112    1
   123   112   114    1
