@<TRIPOS>MOLECULE
tmp/2bytC00.pdb
 116 116 0 0 0
SMALL
GASTEIGER

@<TRIPOS>ATOM
      1  N         -8.4090   54.0810   61.8580 N.3    40  MET40      -0.1230
      2  CA        -8.8210   55.4230   61.4630 C.3    40  MET40       0.1702
      3  C        -10.2980   55.4240   61.0850 C.2    40  MET40       0.2592
      4  O        -10.7070   54.6530   60.2110 O.2    40  MET40      -0.2718
      5  CB        -7.9860   55.8940   60.2770 C.3    40  MET40       0.0401
      6  CG        -6.5010   55.8770   60.5380 C.3    40  MET40       0.0596
      7  SD        -5.5440   56.2450   59.0670 S.3    40  MET40      -0.1393
      8  CE        -3.8910   56.3380   59.7240 C.3    40  MET40       0.0692
      9  N        -11.1020   56.2730   61.7300 N.am   41  PHE41      -0.1963
     10  CA       -12.5140   56.2940   61.4030 C.3    41  PHE41       0.1756
     11  C        -12.7050   56.7400   59.9620 C.2    41  PHE41       0.2461
     12  O        -11.9410   57.5550   59.4410 O.2    41  PHE41      -0.2730
     13  CB       -13.3330   57.1210   62.4110 C.3    41  PHE41       0.0574
     14  CG       -12.9680   58.5830   62.5100 C.ar   41  PHE41      -0.0200
     15  CD1      -12.1760   59.2140   61.5570 C.ar   41  PHE41      -0.0042
     16  CD2      -13.5350   59.3620   63.5220 C.ar   41  PHE41      -0.0042
     17  CE1      -11.9740   60.6010   61.6030 C.ar   41  PHE41      -0.0003
     18  CE2      -13.3410   60.7370   63.5730 C.ar   41  PHE41      -0.0003
     19  CZ       -12.5610   61.3600   62.6140 C.ar   41  PHE41      -0.0000
     20  N        -13.7150   56.1710   59.2830 N.am   42  PRO42      -0.2716
     21  CA       -14.0540   56.4420   57.8830 C.3    42  PRO42       0.1536
     22  C        -14.8660   57.6780   57.5630 C.2    42  PRO42       0.2598
     23  O        -15.6560   58.1480   58.3820 O.2    42  PRO42      -0.2715
     24  CB       -14.7900   55.1720   57.4750 C.3    42  PRO42       0.0310
     25  CG       -15.6130   54.9010   58.7100 C.3    42  PRO42       0.0237
     26  CD       -14.6420   55.1720   59.8570 C.3    42  PRO42       0.0939
     27  N        -14.6500   58.1910   56.3530 N.am   43  TYR43      -0.1974
     28  CA       -15.3820   59.3430   55.8400 C.3    43  TYR43       0.1639
     29  C        -16.6570   58.7330   55.3160 C.2    43  TYR43       0.2290
     30  O        -16.6380   58.0480   54.2950 O.2    43  TYR43      -0.2864
     31  CB       -14.6580   59.9820   54.6620 C.3    43  TYR43       0.0560
     32  CG       -13.4930   60.8440   55.0370 C.ar   43  TYR43      -0.0198
     33  CD1      -13.6140   61.7950   56.0440 C.ar   43  TYR43      -0.0009
     34  CD2      -12.2840   60.7590   54.3480 C.ar   43  TYR43      -0.0009
     35  CE1      -12.5650   62.6480   56.3590 C.ar   43  TYR43       0.0417
     36  CE2      -11.2220   61.6100   54.6530 C.ar   43  TYR43       0.0417
     37  CZ       -11.3730   62.5570   55.6620 C.ar   43  TYR43       0.1957
     38  OH       -10.3490   63.4300   55.9700 O.3    43  TYR43      -0.2866
     39  N        -10.6050   47.4010   59.3360 N.3    56  TYR56      -0.1241
     40  CA       -11.4900   47.0200   60.4310 C.3    56  TYR56       0.1605
     41  C        -11.3720   45.5520   60.8420 C.2    56  TYR56       0.2264
     42  O        -11.5440   45.2210   62.0100 O.2    56  TYR56      -0.2867
     43  CB       -12.9490   47.3480   60.0900 C.3    56  TYR56       0.0534
     44  CG       -13.1310   48.6790   59.4040 C.ar   56  TYR56      -0.0201
     45  CD1      -12.8430   48.8220   58.0520 C.ar   56  TYR56      -0.0009
     46  CD2      -13.5430   49.8060   60.1110 C.ar   56  TYR56      -0.0009
     47  CE1      -12.9560   50.0590   57.4140 C.ar   56  TYR56       0.0417
     48  CE2      -13.6590   51.0540   59.4830 C.ar   56  TYR56       0.0417
     49  CZ       -13.3620   51.1710   58.1340 C.ar   56  TYR56       0.1957
     50  OH       -13.4590   52.3930   57.5020 O.3    56  TYR56      -0.2866
     51  N        -16.3270   60.1700   60.5240 N.3    80  ASP80      -0.1239
     52  CA       -15.7010   61.4480   60.1690 C.3    80  ASP80       0.1674
     53  C        -16.6530   62.1460   59.2060 C.2    80  ASP80       0.2266
     54  O        -16.3460   62.3050   58.0250 O.2    80  ASP80      -0.2867
     55  CB       -14.3600   61.2020   59.4700 C.3    80  ASP80       0.1410
     56  CG       -13.4310   62.4010   59.5450 C.2    80  ASP80       0.3668
     57  OD1      -13.8920   63.4750   59.9910 O.co2  80  ASP80      -0.2456
     58  OD2      -12.2460   62.2700   59.1590 O.co2  80  ASP80      -0.2456
     59  N        -10.0880   67.9350   58.7190 N.3   501  PHE501     -0.1241
     60  CA        -8.9660   67.4240   59.5020 C.3   501  PHE501      0.1605
     61  C         -8.9150   67.8930   60.9460 C.2   501  PHE501      0.2264
     62  O         -8.4040   67.1900   61.8180 O.2   501  PHE501     -0.2867
     63  CB        -7.6460   67.7630   58.8170 C.3   501  PHE501      0.0534
     64  CG        -7.2690   66.7930   57.7470 C.ar  501  PHE501     -0.0203
     65  CD1       -7.2140   65.4310   58.0230 C.ar  501  PHE501     -0.0042
     66  CD2       -6.9560   67.2290   56.4670 C.ar  501  PHE501     -0.0042
     67  CE1       -6.8530   64.5170   57.0370 C.ar  501  PHE501     -0.0003
     68  CE2       -6.5930   66.3180   55.4710 C.ar  501  PHE501     -0.0003
     69  CZ        -6.5400   64.9610   55.7590 C.ar  501  PHE501     -0.0000
     70  N        -10.7390   65.6150   63.0200 N.3   504  SER504     -0.1217
     71  CA       -10.1660   64.2880   62.9040 C.3   504  SER504      0.1889
     72  C         -8.7760   64.2570   63.5110 C.2   504  SER504      0.2288
     73  O         -8.0230   63.3130   63.2910 O.2   504  SER504     -0.2866
     74  CB       -10.1000   63.8720   61.4300 C.3   504  SER504      0.2089
     75  OG        -9.1850   64.6750   60.6980 O.3   504  SER504     -0.2183
     76  N         -9.9570   63.0160   67.7790 N.3   507  TYR507     -0.1241
     77  CA       -11.0620   62.1290   68.0600 C.3   507  TYR507      0.1605
     78  C        -10.6380   60.9440   68.8970 C.2   507  TYR507      0.2264
     79  O        -11.3470   60.5610   69.8300 O.2   507  TYR507     -0.2867
     80  CB       -11.7290   61.6630   66.7660 C.3   507  TYR507      0.0534
     81  CG       -10.9830   60.6310   65.9640 C.ar  507  TYR507     -0.0201
     82  CD1      -10.0090   61.0020   65.0460 C.ar  507  TYR507     -0.0009
     83  CD2      -11.2900   59.2770   66.0940 C.ar  507  TYR507     -0.0009
     84  CE1       -9.3600   60.0430   64.2680 C.ar  507  TYR507      0.0417
     85  CE2      -10.6490   58.3130   65.3310 C.ar  507  TYR507      0.0417
     86  CZ        -9.6830   58.6990   64.4230 C.ar  507  TYR507      0.1957
     87  OH        -9.0060   57.7380   63.7110 O.3   507  TYR507     -0.2866
     88  N         -1.2060   57.3550   53.0500 N.3   540  GLU540     -0.1231
     89  CA        -1.6220   58.6020   52.4230 C.3   540  GLU540      0.1699
     90  C         -1.8550   59.7180   53.4540 C.2   540  GLU540      0.2592
     91  O         -1.9340   60.8980   53.1020 O.2   540  GLU540     -0.2718
     92  CB        -2.8920   58.3870   51.5780 C.3   540  GLU540      0.0402
     93  CG        -4.1790   58.0110   52.3500 C.3   540  GLU540      0.1161
     94  CD        -4.2840   56.5210   52.7050 C.2   540  GLU540      0.3649
     95  OE1       -4.1480   55.6660   51.7940 O.co2 540  GLU540     -0.2457
     96  OE2       -4.5210   56.2090   53.8960 O.co2 540  GLU540     -0.2457
     97  N         -1.9610   59.3510   54.7270 N.am  541  HIS541     -0.1976
     98  CA        -2.1800   60.3490   55.7600 C.3   541  HIS541      0.1656
     99  C         -0.9000   60.6830   56.4950 C.2   541  HIS541      0.2291
    100  O         -0.9270   61.1220   57.6370 O.2   541  HIS541     -0.2864
    101  CB        -3.2330   59.8560   56.7420 C.3   541  HIS541      0.0771
    102  CG        -4.6360   60.0360   56.2550 C.ar  541  HIS541      0.0820
    103  ND1       -5.0890   61.2280   55.7330 N.ar  541  HIS541     -0.2267
    104  CD2       -5.6940   59.1920   56.2440 C.ar  541  HIS541      0.1154
    105  CE1       -6.3690   61.1110   55.4240 C.ar  541  HIS541      0.1986
    106  NE2       -6.7610   59.8860   55.7240 N.ar  541  HIS541     -0.2212
    107  N         -3.0400   63.8780   58.6840 N.3   545  HIS545     -0.1241
    108  CA        -3.5930   63.4390   59.9500 C.3   545  HIS545      0.1621
    109  C         -2.4940   63.0310   60.9320 C.2   545  HIS545      0.2264
    110  O         -2.4680   63.4830   62.0710 O.2   545  HIS545     -0.2867
    111  CB        -4.5280   62.2740   59.6810 C.3   545  HIS545      0.0745
    112  CG        -5.0170   61.6060   60.9140 C.ar  545  HIS545      0.0817
    113  ND1       -5.7480   62.2690   61.8750 N.ar  545  HIS545     -0.2268
    114  CD2       -4.8870   60.3320   61.3490 C.ar  545  HIS545      0.1154
    115  CE1       -6.0490   61.4300   62.8480 C.ar  545  HIS545      0.1986
    116  NE2       -5.5380   60.2470   62.5530 N.ar  545  HIS545     -0.2212
@<TRIPOS>BOND
     1    92    93    1
     2    92    89    1
     3    95    94   ar
     4    93    94    1
     5    89    88    1
     6    89    90    1
     7    94    96   ar
     8    91    90    2
     9    90    97   am
    10    30    29    2
    11    34    36   ar
    12    34    32   ar
    13    36    37   ar
    14    31    32    1
    15    31    28    1
    16    97    98    1
    17    32    33   ar
    18    29    28    1
    19   105   106   ar
    20   105   103   ar
    21    68    69   ar
    22    68    66   ar
    23    37    38    1
    24    37    35   ar
    25   106   104   ar
    26   103   102   ar
    27    69    67   ar
    28    98    99    1
    29    98   101    1
    30    28    27    1
    31    33    35   ar
    32   104   102   ar
    33   102   101    1
    34    27    22   am
    35    66    64   ar
    36    99   100    2
    37    67    65   ar
    38    47    45   ar
    39    47    49   ar
    40    24    21    1
    41    24    25    1
    42    50    49    1
    43    22    21    1
    44    22    23    2
    45    64    65   ar
    46    64    63    1
    47    21    20    1
    48    54    53    2
    49    45    44   ar
    50    49    48   ar
    51   107   108    1
    52    25    26    1
    53    59    60    1
    54    63    60    1
    55     7     8    1
    56     7     6    1
    57    58    56   ar
    58    53    52    1
    59    20    26    1
    60    20    11   am
    61    39    40    1
    62    44    43    1
    63    44    46   ar
    64    12    11    2
    65    55    56    1
    66    55    52    1
    67    48    46   ar
    68    60    61    1
    69    56    57   ar
    70   111   108    1
    71   111   112    1
    72   108   109    1
    73    11    10    1
    74    43    40    1
    75    52    51    1
    76     4     3    2
    77     5     6    1
    78     5     2    1
    79    40    41    1
    80    75    74    1
    81    41    42    2
    82   112   114   ar
    83   112   113   ar
    84   109   110    2
    85    61    62    2
    86     3     2    1
    87     3     9   am
    88   114   116   ar
    89    10     9    1
    90    10    13    1
    91    74    71    1
    92     2     1    1
    93    15    17   ar
    94    15    14   ar
    95    17    19   ar
    96   113   115   ar
    97    13    14    1
    98    14    16   ar
    99   116   115   ar
   100    19    18   ar
   101    71    70    1
   102    71    72    1
   103    73    72    2
   104    16    18   ar
   105    87    86    1
   106    84    86   ar
   107    84    82   ar
   108    86    85   ar
   109    82    81   ar
   110    85    83   ar
   111    81    83   ar
   112    81    80    1
   113    80    77    1
   114    76    77    1
   115    77    78    1
   116    78    79    2
