@<TRIPOS>MOLECULE
tmp/2bz0B00.pdb
 215 203 0 0 0
SMALL
GASTEIGER

@<TRIPOS>ATOM
      1  N         22.3420   11.5630  -69.0020 N.3    49  ARG49      -0.1231
      2  CA        23.6940   11.4760  -69.5250 C.3    49  ARG49       0.1694
      3  C         23.6950   12.0960  -70.9110 C.2    49  ARG49       0.2592
      4  O         22.8300   11.7940  -71.7400 O.2    49  ARG49      -0.2718
      5  CB        24.1260   10.0130  -69.6270 C.3    49  ARG49       0.0321
      6  CG        25.3930    9.7680  -70.4390 C.3    49  ARG49       0.0489
      7  CD        26.6470   10.2110  -69.7070 C.3    49  ARG49       0.2205
      8  NE        27.8330   10.0400  -70.5380 N.pl3  49  ARG49      -0.0865
      9  CZ        29.0290   10.5330  -70.2400 C.cat  49  ARG49       0.5346
     10  NH1       29.2010   11.2280  -69.1210 N.pl3  49  ARG49       0.1354
     11  NH2       30.0450   10.3470  -71.0730 N.pl3  49  ARG49       0.1354
     12  N         24.6550   12.9790  -71.1500 N.am   50  VAL50      -0.1966
     13  CA        24.7880   13.6160  -72.4460 C.3    50  VAL50       0.1727
     14  C         25.9690   12.9240  -73.1120 C.2    50  VAL50       0.2616
     15  O         27.1280   13.1510  -72.7470 O.2    50  VAL50      -0.2715
     16  CB        25.0580   15.1330  -72.3030 C.3    50  VAL50       0.0290
     17  CG1       25.3020   15.7600  -73.6710 C.3    50  VAL50       0.0023
     18  CG2       23.8640   15.7990  -71.6380 C.3    50  VAL50       0.0023
     19  N         25.6640   12.0560  -74.0720 N.am   51  HIS51      -0.1959
     20  CA        26.7040   11.3210  -74.7810 C.3    51  HIS51       0.1787
     21  C         26.9480   11.8810  -76.1850 C.2    51  HIS51       0.2621
     22  O         26.0250   12.0020  -76.9960 O.2    51  HIS51      -0.2715
     23  CB        26.3150    9.8450  -74.8870 C.3    51  HIS51       0.0785
     24  CG        27.3830    8.9800  -75.4860 C.ar   51  HIS51       0.0821
     25  ND1       28.4360    8.4750  -74.7490 N.ar   51  HIS51      -0.2267
     26  CD2       27.5780    8.5610  -76.7600 C.ar   51  HIS51       0.1154
     27  CE1       29.2320    7.7830  -75.5440 C.ar   51  HIS51       0.1986
     28  NE2       28.7350    7.8190  -76.7690 N.ar   51  HIS51      -0.2212
     29  N         28.1910   12.2310  -76.4720 N.am   52  SER52      -0.1936
     30  CA        28.5150   12.7350  -77.7940 C.3    52  SER52       0.2055
     31  C         28.9160   11.5450  -78.6490 C.2    52  SER52       0.2643
     32  O         29.8330   10.7990  -78.3100 O.2    52  SER52      -0.2714
     33  CB        29.6460   13.7620  -77.7300 C.3    52  SER52       0.2130
     34  OG        29.1740   14.9750  -77.1670 O.3    52  SER52      -0.2179
     35  N         28.1970   11.3680  -79.7470 N.am   53  GLU53      -0.1963
     36  CA        28.4350   10.2730  -80.6650 C.3    53  GLU53       0.1733
     37  C         29.8980   10.0340  -81.0340 C.2    53  GLU53       0.2616
     38  O         30.6340   10.9580  -81.3820 O.2    53  GLU53      -0.2715
     39  CB        27.6110   10.4930  -81.9370 C.3    53  GLU53       0.0429
     40  CG        28.0630    9.6550  -83.1280 C.3    53  GLU53       0.1163
     41  CD        27.2190    9.9050  -84.3680 C.2    53  GLU53       0.3649
     42  OE1       26.8600   11.0800  -84.6200 O.co2  53  GLU53      -0.2457
     43  OE2       26.9320    8.9240  -85.0940 O.co2  53  GLU53      -0.2457
     44  N         30.3010    8.7710  -80.9350 N.am   54  CYS54      -0.1968
     45  CA        31.6470    8.3230  -81.2780 C.3    54  CYS54       0.1712
     46  C         31.5050    6.9660  -81.9630 C.2    54  CYS54       0.2296
     47  O         31.4740    5.9270  -81.3080 O.2    54  CYS54      -0.2864
     48  CB        32.5110    8.1750  -80.0330 C.3    54  CYS54       0.0983
     49  SG        34.1490    7.5170  -80.4230 S.3    54  CYS54      -0.0798
     50  N         40.6470    2.3310  -78.5000 N.3    64  ARG64      -0.1231
     51  CA        41.4040    3.5760  -78.5560 C.3    64  ARG64       0.1694
     52  C         40.7590    4.6670  -77.7030 C.2    64  ARG64       0.2592
     53  O         41.3630    5.7040  -77.4400 O.2    64  ARG64      -0.2718
     54  CB        41.5200    4.0270  -80.0150 C.3    64  ARG64       0.0321
     55  CG        42.5030    5.1460  -80.2570 C.3    64  ARG64       0.0489
     56  CD        42.9790    5.1540  -81.7050 C.3    64  ARG64       0.2205
     57  NE        44.0590    6.1220  -81.9050 N.pl3  64  ARG64      -0.0865
     58  CZ        44.9700    6.0550  -82.8760 C.cat  64  ARG64       0.5346
     59  NH1       44.9490    5.0610  -83.7570 N.pl3  64  ARG64       0.1354
     60  NH2       45.9130    6.9820  -82.9610 N.pl3  64  ARG64       0.1354
     61  N         39.5290    4.4220  -77.2670 N.am   65  CYS65      -0.1970
     62  CA        38.7890    5.3610  -76.4210 C.3    65  CYS65       0.1712
     63  C         37.7590    4.5510  -75.6390 C.2    65  CYS65       0.2296
     64  O         37.4900    3.3960  -75.9720 O.2    65  CYS65      -0.2864
     65  CB        38.0670    6.4070  -77.2700 C.3    65  CYS65       0.0983
     66  SG        36.6580    5.7290  -78.1570 S.3    65  CYS65      -0.0798
     67  N         34.5090    5.5540  -75.1470 N.3    67  CYS67      -0.1235
     68  CA        33.1700    6.0160  -75.4790 C.3    67  CYS67       0.1677
     69  C         32.1270    4.9110  -75.3810 C.2    67  CYS67       0.2270
     70  O         31.0470    5.1220  -74.8280 O.2    67  CYS67      -0.2867
     71  CB        33.1620    6.6130  -76.8830 C.3    67  CYS67       0.0956
     72  SG        34.2420    8.0410  -77.0430 S.3    67  CYS67      -0.0801
     73  N         31.5220    3.9850  -71.6850 N.3    70  GLN70      -0.1245
     74  CA        30.7520    5.0500  -71.0440 C.3    70  GLN70       0.1566
     75  C         29.2960    4.9590  -71.4940 C.2    70  GLN70       0.2260
     76  O         28.3750    5.1430  -70.7010 O.2    70  GLN70      -0.2867
     77  CB        31.2950    6.4320  -71.4210 C.3    70  GLN70       0.0367
     78  CG        32.6480    6.7800  -70.8370 C.3    70  GLN70       0.0905
     79  CD        33.0600    8.2120  -71.1530 C.2    70  GLN70       0.2608
     80  OE1       33.1380    8.6060  -72.3180 O.2    70  GLN70      -0.2717
     81  NE2       33.3260    8.9960  -70.1130 N.am   70  GLN70      -0.0878
     82  N         27.3830   14.8370  -82.6300 N.3    91  GLN91      -0.1231
     83  CA        28.4490   15.7440  -83.0400 C.3    91  GLN91       0.1698
     84  C         29.7550   14.9570  -82.9130 C.2    91  GLN91       0.2592
     85  O         30.5030   15.1070  -81.9430 O.2    91  GLN91      -0.2718
     86  CB        28.4890   17.0010  -82.1590 C.3    91  GLN91       0.0381
     87  CG        27.2430   17.8760  -82.2680 C.3    91  GLN91       0.0905
     88  CD        27.4920   19.3230  -81.8580 C.2    91  GLN91       0.2608
     89  OE1       28.2960   19.6000  -80.9640 O.2    91  GLN91      -0.2717
     90  NE2       26.7870   20.2530  -82.5020 N.am   91  GLN91      -0.0878
     91  N         29.9990   14.1070  -83.9080 N.am   92  GLU92      -0.1966
     92  CA        31.1780   13.2440  -83.9810 C.3    92  GLU92       0.1733
     93  C         32.5350   13.9570  -83.8580 C.2    92  GLU92       0.2617
     94  O         32.7580   15.0050  -84.4680 O.2    92  GLU92      -0.2715
     95  CB        31.1320   12.4520  -85.2950 C.3    92  GLU92       0.0429
     96  CG        32.3460   11.5710  -85.5460 C.3    92  GLU92       0.1163
     97  CD        32.3770   10.3390  -84.6640 C.2    92  GLU92       0.3649
     98  OE1       31.5340    9.4370  -84.8790 O.co2  92  GLU92      -0.2457
     99  OE2       33.2390   10.2780  -83.7590 O.co2  92  GLU92      -0.2457
    100  N         33.4370   13.3660  -83.0720 N.am   93  GLY93      -0.1940
    101  CA        34.7700   13.9190  -82.8790 C.3    93  GLY93       0.2014
    102  C         34.8180   15.3180  -82.2920 C.2    93  GLY93       0.2638
    103  O         35.6780   16.1180  -82.6690 O.2    93  GLY93      -0.2714
    104  N         33.9130   15.6030  -81.3540 N.am   94  ARG94      -0.1977
    105  CA        33.8160   16.9170  -80.7090 C.3    94  ARG94       0.1597
    106  C         33.3720   17.9810  -81.7180 C.2    94  ARG94       0.2287
    107  O         33.8410   19.1220  -81.6970 O.2    94  ARG94      -0.2864
    108  CB        35.1510   17.3010  -80.0390 C.3    94  ARG94       0.0334
    109  CG        35.3370   16.6520  -78.6620 C.3    94  ARG94       0.0492
    110  CD        36.7940   16.5540  -78.2220 C.3    94  ARG94       0.2205
    111  NE        36.9380   15.6160  -77.1050 N.pl3  94  ARG94      -0.0865
    112  CZ        38.0910   15.0920  -76.6950 C.cat  94  ARG94       0.5346
    113  NH1       39.2270   15.4050  -77.3030 N.pl3  94  ARG94       0.1354
    114  NH2       38.1030   14.2420  -75.6790 N.pl3  94  ARG94       0.1354
    115  N         33.9050   18.0650  -84.9740 N.3    96  ILE96      -0.1245
    116  CA        34.7390   18.2380  -86.1640 C.3    96  ILE96       0.1561
    117  C         34.3720   17.2170  -87.2410 C.2    96  ILE96       0.2260
    118  O         34.6320   17.4300  -88.4250 O.2    96  ILE96      -0.2867
    119  CB        36.2570   18.1060  -85.8470 C.3    96  ILE96       0.0252
    120  CG1       36.6100   16.6670  -85.4570 C.3    96  ILE96       0.0019
    121  CG2       36.6300   19.0630  -84.7330 C.3    96  ILE96       0.0019
    122  CD1       38.1060   16.4270  -85.2660 C.3    96  ILE96       0.0001
    123  N         38.2750   13.0600  -87.1410 N.3   101  LYS101     -0.1245
    124  CA        38.6750   12.3030  -85.9620 C.3   101  LYS101      0.1561
    125  C         39.6640   11.2270  -86.4020 C.2   101  LYS101      0.2260
    126  O         40.6260   10.9210  -85.6870 O.2   101  LYS101     -0.2867
    127  CB        37.4560   11.6490  -85.2950 C.3   101  LYS101      0.0271
    128  CG        37.7030   11.1990  -83.8500 C.3   101  LYS101      0.0035
    129  CD        36.4690   10.5450  -83.2130 C.3   101  LYS101      0.0206
    130  CE        36.1540    9.1930  -83.8630 C.3   101  LYS101      0.1093
    131  NZ        35.0190    8.4470  -83.2340 N.3   101  LYS101     -0.1314
    132  N         42.9380   12.6080  -87.1560 N.3   104  ALA104     -0.1231
    133  CA        43.5250   13.0850  -85.9030 C.3   104  ALA104      0.1694
    134  C         44.2350   11.8780  -85.2970 C.2   104  ALA104      0.2592
    135  O         45.3330   12.0030  -84.7510 O.2   104  ALA104     -0.2718
    136  CB        42.4510   13.5960  -84.9470 C.3   104  ALA104      0.0304
    137  N         43.5990   10.7080  -85.3940 N.am  105  TYR105     -0.1976
    138  CA        44.2070    9.4900  -84.8880 C.3   105  TYR105      0.1639
    139  C         45.4200    9.2120  -85.7630 C.2   105  TYR105      0.2290
    140  O         46.4300    8.6970  -85.2960 O.2   105  TYR105     -0.2864
    141  CB        43.2420    8.3080  -84.9790 C.3   105  TYR105      0.0560
    142  CG        42.1900    8.2460  -83.8970 C.ar  105  TYR105     -0.0198
    143  CD1       42.5000    8.5630  -82.5740 C.ar  105  TYR105     -0.0009
    144  CD2       40.8970    7.8100  -84.1830 C.ar  105  TYR105     -0.0009
    145  CE1       41.5440    8.4440  -81.5590 C.ar  105  TYR105      0.0417
    146  CE2       39.9370    7.6890  -83.1770 C.ar  105  TYR105      0.0417
    147  CZ        40.2660    8.0070  -81.8710 C.ar  105  TYR105      0.1957
    148  OH        39.3100    7.8920  -80.8840 O.3   105  TYR105     -0.2866
    149  N         47.9570   11.1780  -84.3360 N.3   108  GLN108     -0.1245
    150  CA        48.2780   10.6310  -83.0210 C.3   108  GLN108      0.1566
    151  C         49.0710    9.3380  -83.1970 C.2   108  GLN108      0.2260
    152  O         49.7640    8.9000  -82.2820 O.2   108  GLN108     -0.2867
    153  CB        47.0030   10.3780  -82.2110 C.3   108  GLN108      0.0367
    154  CG        46.2750   11.6580  -81.8030 C.3   108  GLN108      0.0905
    155  CD        45.0280   11.4020  -80.9610 C.2   108  GLN108      0.2608
    156  OE1       45.0900   10.7290  -79.9310 O.2   108  GLN108     -0.2717
    157  NE2       43.8910   11.9500  -81.3930 N.am  108  GLN108     -0.0878
    158  N         45.4520   14.8200  -78.3540 N.3   114  THR114     -0.1218
    159  CA        44.1950   15.3570  -78.8750 C.3   114  THR114      0.1862
    160  C         44.1870   16.8560  -79.1760 C.2   114  THR114      0.2287
    161  O         43.7940   17.2690  -80.2680 O.2   114  THR114     -0.2866
    162  CB        43.0200   15.0760  -77.9060 C.3   114  THR114      0.1770
    163  OG1       42.8200   13.6640  -77.7730 O.3   114  THR114     -0.2211
    164  CG2       41.7540   15.6980  -78.4330 C.3   114  THR114      0.0375
    165  N         44.2020   18.8130  -83.2350 N.3   118  ASN118     -0.1240
    166  CA        43.1120   19.5730  -83.8320 C.3   118  ASN118      0.1653
    167  C         43.5800   20.9460  -84.2950 C.2   118  ASN118      0.2266
    168  O         43.2030   21.3970  -85.3750 O.2   118  ASN118     -0.2867
    169  CB        41.9570   19.7230  -82.8400 C.3   118  ASN118      0.1155
    170  CG        41.1690   18.4380  -82.6660 C.2   118  ASN118      0.2627
    171  OD1       40.6120   17.9040  -83.6270 O.2   118  ASN118     -0.2716
    172  ND2       41.1160   17.9360  -81.4370 N.am  118  ASN118     -0.0877
    173  N         32.1810   21.6410  -79.9920 N.3   128  ARG128     -0.1245
    174  CA        30.7800   21.3190  -79.7320 C.3   128  ARG128      0.1563
    175  C         29.8710   22.4540  -79.2560 C.2   128  ARG128      0.2260
    176  O         30.3140   23.4330  -78.6420 O.2   128  ARG128     -0.2867
    177  CB        30.6890   20.1570  -78.7310 C.3   128  ARG128      0.0307
    178  CG        31.0570   18.7960  -79.3150 C.3   128  ARG128      0.0489
    179  CD        31.0470   17.6930  -78.2580 C.3   128  ARG128      0.2205
    180  NE        32.1020   17.8660  -77.2580 N.pl3 128  ARG128     -0.0865
    181  CZ        32.3190   17.0330  -76.2420 C.cat 128  ARG128      0.5346
    182  NH1       31.5540   15.9600  -76.0830 N.pl3 128  ARG128      0.1354
    183  NH2       33.3060   17.2680  -75.3850 N.pl3 128  ARG128      0.1354
    184  N         28.3260   12.3040  -64.9890 N.3   149  THR149     -0.1203
    185  CA        29.6350   12.6130  -65.5290 C.3   149  THR149      0.1994
    186  C         30.7160   12.5810  -64.4640 C.2   149  THR149      0.2618
    187  O         30.4490   12.7540  -63.2760 O.2   149  THR149     -0.2717
    188  CB        29.6430   13.9940  -66.2110 C.3   149  THR149      0.1784
    189  OG1       30.9400   14.2400  -66.7650 O.3   149  THR149     -0.2211
    190  CG2       29.3040   15.0930  -65.2120 C.3   149  THR149      0.0376
    191  N         31.9430   12.3460  -64.9070 N.am  150  ASN150     -0.1960
    192  CA        33.0890   12.2920  -64.0150 C.3   150  ASN150      0.1819
    193  C         33.9330   13.5440  -64.1940 C.2   150  ASN150      0.2621
    194  O         34.9050   13.7600  -63.4700 O.2   150  ASN150     -0.2715
    195  CB        33.9150   11.0430  -64.3120 C.3   150  ASN150      0.1195
    196  CG        33.2200    9.7760  -63.8620 C.2   150  ASN150      0.2630
    197  OD1       33.5460    8.6780  -64.3130 O.2   150  ASN150     -0.2716
    198  ND2       32.2610    9.9220  -62.9570 N.am  150  ASN150     -0.0877
    199  N         33.5540   14.3650  -65.1670 N.am  151  ASN151     -0.1972
    200  CA        34.2620   15.6090  -65.4260 C.3   151  ASN151      0.1688
    201  C         33.4510   16.7710  -64.8720 C.2   151  ASN151      0.2292
    202  O         32.3860   17.1060  -65.3890 O.2   151  ASN151     -0.2864
    203  CB        34.4770   15.8110  -66.9220 C.3   151  ASN151      0.1181
    204  CG        35.1330   17.1370  -67.2330 C.2   151  ASN151      0.2629
    205  OD1       36.2510   17.4060  -66.7940 O.2   151  ASN151     -0.2716
    206  ND2       34.4370   17.9800  -67.9870 N.am  151  ASN151     -0.0877
    207  N         32.5290   19.6720  -67.1290 N.3   154  LYS154     -0.1245
    208  CA        31.4350   19.4550  -68.0660 C.3   154  LYS154      0.1561
    209  C         30.1710   20.1200  -67.5360 C.2   154  LYS154      0.2260
    210  O         29.4300   20.7550  -68.2880 O.2   154  LYS154     -0.2867
    211  CB        31.1810   17.9600  -68.2430 C.3   154  LYS154      0.0271
    212  CG        30.3100   17.6110  -69.4330 C.3   154  LYS154      0.0035
    213  CD        31.0780   17.7700  -70.7380 C.3   154  LYS154      0.0206
    214  CE        30.1980   17.4780  -71.9480 C.3   154  LYS154      0.1093
    215  NZ        29.6540   16.0900  -71.9450 N.3   154  LYS154     -0.1314
@<TRIPOS>BOND
     1   118   117    2
     2   117   116    1
     3   132   133    1
     4   123   124    1
     5   125   124    1
     6   125   126    2
     7   116   119    1
     8   116   115    1
     9   124   127    1
    10   133   134    1
    11   133   136    1
    12   119   120    1
    13   119   121    1
    14   139   140    2
    15   139   138    1
    16    96    95    1
    17    96    97    1
    18   120   122    1
    19   137   134   am
    20   137   138    1
    21   168   167    2
    22   134   135    2
    23    95    92    1
    24   127   128    1
    25    43    41   ar
    26   141   138    1
    27   141   142    1
    28    98    97   ar
    29    97    99   ar
    30    42    41   ar
    31    94    93    2
    32    41    40    1
    33   149   150    1
    34   167   166    1
    35   144   142   ar
    36   144   146   ar
    37    92    91    1
    38    92    93    1
    39    91    84   am
    40   142   143   ar
    41   130   131    1
    42   130   129    1
    43    93   100   am
    44   128   129    1
    45   166   165    1
    46   166   169    1
    47    59    58    1
    48   171   170    2
    49   151   150    1
    50   151   152    2
    51   146   147   ar
    52    40    39    1
    53   100   101    1
    54    83    84    1
    55    83    82    1
    56    83    86    1
    57   150   153    1
    58    60    58    1
    59    84    85    2
    60   101   102    1
    61    58    57    2
    62   169   170    1
    63   103   102    2
    64   170   172   am
    65   143   145   ar
    66    90    88   am
    67   102   104   am
    68    87    86    1
    69    87    88    1
    70   153   154    1
    71    46    47    2
    72    46    45    1
    73    39    36    1
    74    57    56    1
    75   147   145   ar
    76   147   148    1
    77    88    89    2
    78   154   155    1
    79   106   107    2
    80   106   105    1
    81    56    55    1
    82   157   155   am
    83    38    37    2
    84   104   105    1
    85    45    44    1
    86    45    48    1
    87    37    44   am
    88    37    36    1
    89   155   156    2
    90   105   108    1
    91    36    35    1
    92    49    48    1
    93   161   160    2
    94    55    54    1
    95   108   109    1
    96    54    51    1
    97   173   174    1
    98    35    31   am
    99   174   175    1
   100   174   177    1
   101   178   177    1
   102   178   179    1
   103   175   176    2
   104   160   159    1
   105   159   158    1
   106   159   162    1
   107   109   110    1
   108    31    32    2
   109    31    30    1
   110    51    50    1
   111    51    52    1
   112   164   162    1
   113   179   180    1
   114   110   111    1
   115    66    65    1
   116   162   163    1
   117    30    33    1
   118    30    29    1
   119    33    34    1
   120    52    53    2
   121    52    61   am
   122   113   112    1
   123    65    62    1
   124    61    62    1
   125   180   181    2
   126   111   112    2
   127    72    71    1
   128    22    21    2
   129    71    68    1
   130    28    26   ar
   131    28    27   ar
   132    26    24   ar
   133   112   114    1
   134    29    21   am
   135    62    63    1
   136   181   182    1
   137   181   183    1
   138    21    20    1
   139    64    63    2
   140    27    25   ar
   141    24    23    1
   142    24    25   ar
   143    68    69    1
   144    68    67    1
   145    69    70    2
   146    23    20    1
   147    20    19    1
   148    19    14   am
   149    17    16    1
   150    14    15    2
   151    14    13    1
   152    13    16    1
   153    13    12    1
   154    80    79    2
   155    16    18    1
   156   214   215    1
   157   214   213    1
   158     4     3    2
   159    73    74    1
   160    75    74    1
   161    75    76    2
   162    77    74    1
   163    77    78    1
   164    79    78    1
   165    79    81   am
   166    12     3   am
   167    11     9    1
   168     3     2    1
   169   213   212    1
   170     8     9    2
   171     8     7    1
   172     6     7    1
   173     6     5    1
   174     9    10    1
   175     5     2    1
   176     2     1    1
   177   212   211    1
   178   210   209    2
   179   211   208    1
   180   208   209    1
   181   208   207    1
   182   206   204   am
   183   204   203    1
   184   204   205    2
   185   203   200    1
   186   189   188    1
   187   188   185    1
   188   188   190    1
   189   185   184    1
   190   185   186    1
   191   200   199    1
   192   200   201    1
   193   202   201    2
   194   199   193   am
   195   191   186   am
   196   191   192    1
   197   186   187    2
   198   197   196    2
   199   195   192    1
   200   195   196    1
   201   193   192    1
   202   193   194    2
   203   196   198   am
