@<TRIPOS>MOLECULE
tmp/2bz5A00.pdb
 148 136 0 0 0
SMALL
GASTEIGER

@<TRIPOS>ATOM
      1  N         28.8380   11.0100   40.8550 N.3    33  LEU33      -0.1245
      2  CA        28.2080   11.5620   42.0550 C.3    33  LEU33       0.1561
      3  C         26.9260   10.8060   42.4190 C.2    33  LEU33       0.2260
      4  O         26.7380   10.4690   43.5780 O.2    33  LEU33      -0.2867
      5  CB        27.9690   13.0590   41.9080 C.3    33  LEU33       0.0270
      6  CG        29.2040   13.9680   41.7390 C.3    33  LEU33       0.0019
      7  CD1       28.6980   15.4220   41.5970 C.3    33  LEU33       0.0001
      8  CD2       30.1380   13.8570   42.9340 C.3    33  LEU33       0.0001
      9  N         27.9620    7.4740   44.0680 N.3    36  ASN36      -0.1225
     10  CA        28.2530    7.6680   45.5060 C.3    36  ASN36       0.1785
     11  C         26.9870    7.8380   46.3700 C.2    36  ASN36       0.2597
     12  O         26.8810    7.2690   47.4540 O.2    36  ASN36      -0.2718
     13  CB        29.1310    8.9140   45.7000 C.3    36  ASN36       0.1169
     14  CG        30.5980    8.6980   45.2820 C.2    36  ASN36       0.2627
     15  OD1       30.9620    7.7320   44.5800 O.2    36  ASN36      -0.2716
     16  ND2       31.4490    9.6310   45.7040 N.am   36  ASN36      -0.0877
     17  N         26.0230    8.6340   45.8780 N.am   37  SER37      -0.1952
     18  CA        24.7220    8.7900   46.5300 C.3    37  SER37       0.1924
     19  C         24.0240    7.4260   46.7120 C.2    37  SER37       0.2314
     20  O         23.6340    7.0900   47.8100 O.2    37  SER37      -0.2863
     21  CB        23.8240    9.7420   45.7010 C.3    37  SER37       0.2116
     22  OG        24.2430   11.1050   45.7770 O.3    37  SER37      -0.2180
     23  N         25.3040    4.4050   46.6960 N.3    39  ASP39      -0.1225
     24  CA        26.0840    3.6740   47.6980 C.3    39  ASP39       0.1805
     25  C         25.7100    4.0990   49.1460 C.2    39  ASP39       0.2597
     26  O         25.5300    3.2690   50.0650 O.2    39  ASP39      -0.2718
     27  CB        27.5270    4.0490   47.4680 C.3    39  ASP39       0.1424
     28  CG        28.3420    2.9200   47.1470 C.2    39  ASP39       0.3668
     29  OD1       28.9720    2.9760   46.0250 O.co2  39  ASP39      -0.2456
     30  OD2       28.4190    1.9250   47.9560 O.co2  39  ASP39      -0.2456
     31  N         25.6310    5.4000   49.3570 N.am   40  ALA40      -0.1979
     32  CA        25.2970    5.9390   50.6760 C.3    40  ALA40       0.1597
     33  C         23.8500    5.5590   51.0780 C.2    40  ALA40       0.2287
     34  O         23.5110    5.3100   52.2600 O.2    40  ALA40      -0.2864
     35  CB        25.4790    7.4480   50.6390 C.3    40  ALA40       0.0319
     36  N         23.7060    1.8230   52.1490 N.3    43  LYS43      -0.1245
     37  CA        24.2220    1.7030   53.5210 C.3    43  LYS43       0.1561
     38  C         23.2300    2.0650   54.6020 C.2    43  LYS43       0.2260
     39  O         23.1330    1.3460   55.6000 O.2    43  LYS43      -0.2867
     40  CB        25.5160    2.5050   53.7100 C.3    43  LYS43       0.0271
     41  CG        26.6380    1.9610   52.8270 C.3    43  LYS43       0.0035
     42  CD        27.8490    2.8530   52.9210 C.3    43  LYS43       0.0206
     43  CE        29.0710    2.0350   52.9060 C.3    43  LYS43       0.1093
     44  NZ        29.4170    1.6170   51.5330 N.3    43  LYS43      -0.1314
     45  N         21.2750   13.7400   48.3630 N.3    78  ASP78      -0.1239
     46  CA        20.7470   12.4120   48.6820 C.3    78  ASP78       0.1674
     47  C         20.4260   12.2910   50.1580 C.2    78  ASP78       0.2266
     48  O         20.9840   13.0380   50.9980 O.2    78  ASP78      -0.2867
     49  CB        21.7160   11.2970   48.2280 C.3    78  ASP78       0.1410
     50  CG        22.9880   11.2380   49.0880 C.2    78  ASP78       0.3668
     51  OD1       22.8960   10.8830   50.3130 O.co2  78  ASP78      -0.2456
     52  OD2       24.1230   11.5620   48.6350 O.co2  78  ASP78      -0.2456
     53  N         23.3510    7.6640   54.1150 N.3    81  ILE81      -0.1231
     54  CA        23.7850    7.5430   55.5260 C.3    81  ILE81       0.1692
     55  C         24.5740    8.7960   55.9880 C.2    81  ILE81       0.2593
     56  O         24.7210    9.0630   57.1810 O.2    81  ILE81      -0.2718
     57  CB        24.6290    6.2210   55.7100 C.3    81  ILE81       0.0266
     58  CG1       24.9680    5.9380   57.2060 C.3    81  ILE81       0.0019
     59  CG2       25.8870    6.2420   54.8380 C.3    81  ILE81       0.0020
     60  CD1       25.3320    4.4930   57.4700 C.3    81  ILE81       0.0001
     61  N         25.1480    9.5370   55.0450 N.am   82  GLY82      -0.1942
     62  CA        25.8280   10.7460   55.4510 C.3    82  GLY82       0.2014
     63  C         27.1900   10.4730   56.0180 C.2    82  GLY82       0.2638
     64  O         27.6690    9.3200   56.0650 O.2    82  GLY82      -0.2714
     65  N         27.8700   11.5370   56.4210 N.am   83  MET83      -0.1976
     66  CA        29.2510   11.3770   56.9040 C.3    83  MET83       0.1605
     67  C         29.3880   12.1400   58.2160 C.2    83  MET83       0.2287
     68  O         28.8480   13.2490   58.3220 O.2    83  MET83      -0.2864
     69  CB        30.2040   11.9400   55.8520 C.3    83  MET83       0.0413
     70  CG        30.4510   11.0170   54.6160 C.3    83  MET83       0.0598
     71  SD        31.6230   11.8860   53.4790 S.3    83  MET83      -0.1393
     72  CE        30.5150   13.0000   52.5120 C.3    83  MET83       0.0692
     73  N         37.4210   10.9610   54.0730 N.3    91  ASN91      -0.1225
     74  CA        36.8600   10.5510   52.7770 C.3    91  ASN91       0.1785
     75  C         37.2200   11.5130   51.6730 C.2    91  ASN91       0.2597
     76  O         37.4990   11.0990   50.5280 O.2    91  ASN91      -0.2718
     77  CB        35.3370   10.4220   52.7980 C.3    91  ASN91       0.1169
     78  CG        34.8470    9.1340   53.4560 C.2    91  ASN91       0.2627
     79  OD1       35.6410    8.3120   53.9380 O.2    91  ASN91      -0.2716
     80  ND2       33.5110    8.9830   53.5230 N.am   91  ASN91      -0.0877
     81  N         37.1780   12.8030   51.9850 N.am   92  LEU92      -0.1980
     82  CA        37.4000   13.7970   50.9260 C.3    92  LEU92       0.1596
     83  C         38.8300   14.2820   50.9250 C.2    92  LEU92       0.2287
     84  O         39.3270   14.7370   49.9080 O.2    92  LEU92      -0.2864
     85  CB        36.3890   14.9570   50.9930 C.3    92  LEU92       0.0297
     86  CG        34.8740   14.6530   50.9840 C.3    92  LEU92       0.0022
     87  CD1       34.0300   15.8640   50.6070 C.3    92  LEU92       0.0001
     88  CD2       34.4710   13.4810   50.1110 C.3    92  LEU92       0.0001
     89  N         42.5690    7.3270   51.9820 N.3    96  ALA96      -0.1231
     90  CA        41.7070    6.4300   52.7580 C.3    96  ALA96       0.1694
     91  C         41.6460    5.0150   52.1300 C.2    96  ALA96       0.2592
     92  O         42.6910    4.3440   51.9630 O.2    96  ALA96      -0.2718
     93  CB        40.2530    7.0350   52.9880 C.3    96  ALA96       0.0304
     94  N         40.4450    4.5750   51.7540 N.am   97  LYS97      -0.1966
     95  CA        40.3160    3.2490   51.1430 C.3    97  LYS97       0.1728
     96  C         40.1050    3.2870   49.6340 C.2    97  LYS97       0.2616
     97  O         39.6950    2.2980   49.0070 O.2    97  LYS97      -0.2715
     98  CB        39.2780    2.3760   51.8840 C.3    97  LYS97       0.0311
     99  CG        37.8900    2.9850   51.9960 C.3    97  LYS97       0.0038
    100  CD        36.9290    2.0430   52.7650 C.3    97  LYS97       0.0206
    101  CE        37.0390    2.1740   54.3140 C.3    97  LYS97       0.1093
    102  NZ        35.9880    3.1380   54.8850 N.3    97  LYS97      -0.1314
    103  N         40.4570    4.4130   49.0220 N.am   98  SER98      -0.1950
    104  CA        40.3750    4.5350   47.5680 C.3    98  SER98       0.1924
    105  C         41.5840    3.9630   46.8170 C.2    98  SER98       0.2314
    106  O         42.6460    3.7210   47.4230 O.2    98  SER98      -0.2863
    107  CB        40.2010    6.0050   47.2050 C.3    98  SER98       0.2116
    108  OG        41.4000    6.7040   47.3550 O.3    98  SER98      -0.2180
    109  N         37.4060    4.1900   43.0790 N.3   120  GLY120     -0.1225
    110  CA        36.8010    4.8400   44.2280 C.3   120  GLY120      0.1811
    111  C         37.1420    6.3130   44.4090 C.2   120  GLY120      0.2280
    112  O         37.1080    6.8120   45.5360 O.2   120  GLY120     -0.2866
    113  N         35.7470    8.6990   42.0780 N.3   122  GLY122     -0.1210
    114  CA        34.8970    9.3960   41.1230 C.3   122  GLY122      0.1956
    115  C         34.4000   10.7910   41.5260 C.2   122  GLY122      0.2611
    116  O         34.1350   11.6460   40.6570 O.2   122  GLY122     -0.2717
    117  N         34.2480   11.0030   42.8240 N.am  123  PHE123     -0.1976
    118  CA        33.9420   12.3100   43.4120 C.3   123  PHE123      0.1639
    119  C         34.7500   13.4170   42.7680 C.2   123  PHE123      0.2290
    120  O         34.1890   14.4160   42.3960 O.2   123  PHE123     -0.2864
    121  CB        34.2240   12.3430   44.9240 C.3   123  PHE123      0.0560
    122  CG        34.2360   13.7750   45.5350 C.ar  123  PHE123     -0.0200
    123  CD1       33.0630   14.5420   45.5770 C.ar  123  PHE123     -0.0042
    124  CD2       35.4310   14.3390   46.0430 C.ar  123  PHE123     -0.0042
    125  CE1       33.0420   15.8660   46.1170 C.ar  123  PHE123     -0.0003
    126  CE2       35.4280   15.6640   46.5760 C.ar  123  PHE123     -0.0003
    127  CZ        34.2220   16.4200   46.6240 C.ar  123  PHE123     -0.0000
    128  N         30.4540   20.3990   50.0240 N.3   135  VAL135     -0.1245
    129  CA        29.7740   19.1640   50.4160 C.3   135  VAL135      0.1561
    130  C         29.2070   19.3640   51.8130 C.2   135  VAL135      0.2260
    131  O         29.9590   19.5140   52.7920 O.2   135  VAL135     -0.2867
    132  CB        30.7050   17.9280   50.3880 C.3   135  VAL135      0.0252
    133  CG1       29.9590   16.6450   50.8640 C.3   135  VAL135      0.0019
    134  CG2       31.2020   17.6910   48.9740 C.3   135  VAL135      0.0019
    135  N         23.6830   13.7510   52.2000 N.3   169  THR169     -0.1218
    136  CA        24.7760   14.5520   51.6210 C.3   169  THR169      0.1862
    137  C         24.2380   15.4380   50.4980 C.2   169  THR169      0.2287
    138  O         23.4240   14.9700   49.6700 O.2   169  THR169     -0.2866
    139  CB        25.8650   13.6020   51.0750 C.3   169  THR169      0.1770
    140  OG1       26.3960   12.8370   52.1720 O.3   169  THR169     -0.2211
    141  CG2       27.0940   14.4010   50.4170 C.3   169  THR169      0.0375
    142  N         25.9550   17.7920   47.4400 N.3   171  VAL171     -0.1245
    143  CA        27.1180   18.2160   46.7040 C.3   171  VAL171      0.1561
    144  C         26.6910   19.3920   45.8330 C.2   171  VAL171      0.2260
    145  O         25.8770   19.2240   44.9230 O.2   171  VAL171     -0.2867
    146  CB        27.7040   17.0610   45.8190 C.3   171  VAL171      0.0252
    147  CG1       28.9660   17.5230   45.0420 C.3   171  VAL171      0.0019
    148  CG2       28.0070   15.7950   46.6360 C.3   171  VAL171      0.0019
@<TRIPOS>BOND
     1   116   115    2
     2     1     2    1
     3   114   115    1
     4   114   113    1
     5   115   117   am
     6     7     6    1
     7     6     5    1
     8     6     8    1
     9     5     2    1
    10     2     3    1
    11   120   119    2
    12     3     4    2
    13   119   118    1
    14   117   118    1
    15   109   110    1
    16   118   121    1
    17     9    10    1
    18   110   111    1
    19   111   112    2
    20    15    14    2
    21   145   144    2
    22   121   122    1
    23   147   146    1
    24    14    13    1
    25    14    16   am
    26    10    13    1
    27    10    11    1
    28   122   123   ar
    29   122   124   ar
    30   123   125   ar
    31    21    22    1
    32    21    18    1
    33   146   148    1
    34   146   143    1
    35   144   143    1
    36    17    11   am
    37    17    18    1
    38    29    28   ar
    39   124   126   ar
    40   125   127   ar
    41    11    12    2
    42    18    19    1
    43   126   127   ar
    44    23    24    1
    45   143   142    1
    46    19    20    2
    47   105   106    2
    48   105   104    1
    49    28    27    1
    50    28    30   ar
    51   107   108    1
    52   107   104    1
    53    27    24    1
    54   104   103    1
    55    24    25    1
    56    49    46    1
    57    49    50    1
    58    45    46    1
    59    52    50   ar
    60    46    47    1
    61   134   132    1
    62    97    96    2
    63   103    96   am
    64    50    51   ar
    65    25    31   am
    66    25    26    2
    67    31    32    1
    68    96    95    1
    69   138   137    2
    70    84    83    2
    71   128   129    1
    72    88    86    1
    73    47    48    2
    74   132   129    1
    75   132   133    1
    76   129   130    1
    77   141   139    1
    78   137   136    1
    79    76    75    2
    80    87    86    1
    81    35    32    1
    82    32    33    1
    83    83    82    1
    84    82    85    1
    85    82    81    1
    86    86    85    1
    87   139   136    1
    88   139   140    1
    89    33    34    2
    90    95    94    1
    91    95    98    1
    92    44    43    1
    93   136   135    1
    94    75    81   am
    95    75    74    1
    96    94    91   am
    97   130   131    2
    98    98    99    1
    99    92    91    2
   100    89    90    1
   101    99   100    1
   102    91    90    1
   103    36    37    1
   104    72    71    1
   105    90    93    1
   106   100   101    1
   107    74    77    1
   108    74    73    1
   109    77    78    1
   110    41    42    1
   111    41    40    1
   112    43    42    1
   113    78    80   am
   114    78    79    2
   115    71    70    1
   116    37    40    1
   117    37    38    1
   118    53    54    1
   119   101   102    1
   120    38    39    2
   121    70    69    1
   122    59    57    1
   123    61    62    1
   124    61    55   am
   125    62    63    1
   126    54    57    1
   127    54    55    1
   128    57    58    1
   129    69    66    1
   130    55    56    2
   131    63    64    2
   132    63    65   am
   133    65    66    1
   134    66    67    1
   135    58    60    1
   136    67    68    2
