@<TRIPOS>MOLECULE
tmp/2bz6A00.pdb
 170 169 0 0 0
SMALL
GASTEIGER

@<TRIPOS>ATOM
      1  N         13.7180   42.6750   40.4000 N.3    41  HIS41      -0.1241
      2  CA        12.3820   42.8820   39.7940 C.3    41  HIS41       0.1621
      3  C         11.3760   41.7880   40.1350 C.2    41  HIS41       0.2264
      4  O         10.1700   42.0270   40.0570 O.2    41  HIS41      -0.2867
      5  CB        12.4840   43.1100   38.2800 C.3    41  HIS41       0.0745
      6  CG        12.4610   41.8550   37.4470 C.ar   41  HIS41       0.0817
      7  ND1       13.6040   41.3020   36.9090 N.ar   41  HIS41      -0.2268
      8  CD2       11.4290   41.1040   37.0040 C.ar   41  HIS41       0.1154
      9  CE1       13.2660   40.2480   36.1810 C.ar   41  HIS41       0.1986
     10  NE2       11.9530   40.1030   36.2300 N.ar   41  HIS41      -0.2212
     11  N         18.5100   50.3670   42.5640 N.3    82  TYR82      -0.1241
     12  CA        17.3830   49.7480   41.8470 C.3    82  TYR82       0.1605
     13  C         16.0920   50.5460   42.0400 C.2    82  TYR82       0.2264
     14  O         15.7330   50.8930   43.1660 O.2    82  TYR82      -0.2867
     15  CB        17.1720   48.3150   42.3130 C.3    82  TYR82       0.0534
     16  CG        15.9700   47.6860   41.6780 C.ar   82  TYR82      -0.0201
     17  CD1       15.9900   47.2700   40.3400 C.ar   82  TYR82      -0.0009
     18  CD2       14.7880   47.5640   42.3960 C.ar   82  TYR82      -0.0009
     19  CE1       14.8600   46.7140   39.7620 C.ar   82  TYR82       0.0417
     20  CE2       13.6630   47.0020   41.8360 C.ar   82  TYR82       0.0417
     21  CZ        13.6990   46.5900   40.5120 C.ar   82  TYR82       0.1957
     22  OH        12.5720   46.0400   39.9320 O.3    82  TYR82      -0.2866
     23  N         11.8220   49.5450   36.6150 N.3    86  THR86      -0.1203
     24  CA        12.8660   49.8770   35.6550 C.3    86  THR86       0.1994
     25  C         13.9070   48.7550   35.6180 C.2    86  THR86       0.2618
     26  O         13.8510   47.8270   36.4290 O.2    86  THR86      -0.2717
     27  CB        13.5280   51.2270   35.9700 C.3    86  THR86       0.1784
     28  OG1       14.3440   51.1180   37.1500 O.3    86  THR86      -0.2211
     29  CG2       12.4510   52.2800   36.1860 C.3    86  THR86       0.0376
     30  N         14.8580   48.8530   34.6940 N.am   87  THR87      -0.1952
     31  CA        15.7240   47.7160   34.3730 C.3    87  THR87       0.1897
     32  C         17.0670   47.6630   35.0810 C.2    87  THR87       0.2313
     33  O         17.6020   46.5800   35.2870 O.2    87  THR87      -0.2863
     34  CB        16.0150   47.6200   32.8580 C.3    87  THR87       0.1794
     35  OG1       16.4790   48.8870   32.3720 O.3    87  THR87      -0.2208
     36  CG2       14.7530   47.2050   32.0830 C.3    87  THR87       0.0378
     37  N         19.4750   45.0690   38.4660 N.3    90  ASP90      -0.1239
     38  CA        18.4590   44.0540   38.6960 C.3    90  ASP90       0.1674
     39  C         19.0200   42.8260   39.4280 C.2    90  ASP90       0.2266
     40  O         19.2030   41.7590   38.8550 O.2    90  ASP90      -0.2867
     41  CB        17.7740   43.6650   37.3860 C.3    90  ASP90       0.1410
     42  CG        16.5300   42.8100   37.6020 C.2    90  ASP90       0.3668
     43  OD1       16.1060   42.1140   36.6500 O.co2  90  ASP90      -0.2456
     44  OD2       15.9550   42.8330   38.6820 O.co2  90  ASP90      -0.2456
     45  N         14.9060   50.0490   26.7480 N.3   169  PRO169     -0.2116
     46  CA        15.8140   50.4040   27.8450 C.3   169  PRO169      0.1372
     47  C         17.2670   50.4170   27.3850 C.2   169  PRO169      0.2244
     48  O         17.6370   49.6690   26.4700 O.2   169  PRO169     -0.2868
     49  CB        15.5740   49.3000   28.8920 C.3   169  PRO169      0.0268
     50  CG        14.2770   48.6470   28.4950 C.3   169  PRO169      0.0207
     51  CD        14.2210   48.7720   27.0100 C.3   169  PRO169      0.0892
     52  N         16.1390   31.5100   23.8870 N.3   186  ASP186     -0.1225
     53  CA        16.1770   32.6250   24.8490 C.3   186  ASP186      0.1805
     54  C         15.6900   32.1250   26.1920 C.2   186  ASP186      0.2598
     55  O         15.0740   31.0770   26.2850 O.2   186  ASP186     -0.2718
     56  CB        15.2720   33.7540   24.3480 C.3   186  ASP186      0.1424
     57  CG        15.5410   35.1050   24.9910 C.2   186  ASP186      0.3668
     58  OD1       16.4350   35.2660   25.8550 O.co2 186  ASP186     -0.2456
     59  OD2       14.8410   36.0530   24.5870 O.co2 186  ASP186     -0.2456
     60  N         15.9990   32.8710   27.2370 N.am  187  SER187     -0.1938
     61  CA        15.2670   32.7410   28.4720 C.3   187  SER187      0.2055
     62  C         14.0090   33.6040   28.3910 C.2   187  SER187      0.2643
     63  O         13.8420   34.3840   27.4640 O.2   187  SER187     -0.2714
     64  CB        16.1520   33.1220   29.6330 C.3   187  SER187      0.2130
     65  OG        16.6910   34.4000   29.4450 O.3   187  SER187     -0.2179
     66  N         13.0970   33.4340   29.3430 N.am  188  CYS188     -0.1953
     67  CA        11.8160   34.1400   29.2980 C.3   188  CYS188      0.1843
     68  C         11.4460   34.6460   30.6800 C.2   188  CYS188      0.2625
     69  O         12.1240   34.3620   31.6540 O.2   188  CYS188     -0.2714
     70  CB        10.7080   33.2360   28.7320 C.3   188  CYS188      0.0997
     71  SG         9.2230   34.0810   28.0640 S.3   188  CYS188     -0.0797
     72  N         10.3480   35.3870   30.7590 N.am  189  LYS189     -0.1977
     73  CA        10.0180   36.0970   31.9880 C.3   189  LYS189      0.1596
     74  C          9.8950   35.2020   33.2090 C.2   189  LYS189      0.2287
     75  O         10.3910   35.5600   34.2730 O.2   189  LYS189     -0.2864
     76  CB         8.7900   36.9700   31.8120 C.3   189  LYS189      0.0298
     77  CG         7.5500   36.2440   31.6800 C.3   189  LYS189      0.0038
     78  CD         6.4020   37.2160   31.4490 C.3   189  LYS189      0.0206
     79  CE         5.1090   36.5020   31.2520 C.3   189  LYS189      0.1093
     80  NZ         4.1290   37.4420   30.6330 N.3   189  LYS189     -0.1314
     81  N         13.1540   34.6070   35.1240 N.3   192  SER192     -0.1217
     82  CA        13.7060   35.7830   35.7770 C.3   192  SER192      0.1889
     83  C         14.3110   35.3860   37.0990 C.2   192  SER192      0.2288
     84  O         13.7210   34.6100   37.8380 O.2   192  SER192     -0.2866
     85  CB        12.6030   36.8040   36.0830 C.3   192  SER192      0.2089
     86  OG        12.1760   37.4910   34.9270 O.3   192  SER192     -0.2183
     87  N         19.0710   36.1470   34.9470 N.3   210  VAL210     -0.1231
     88  CA        17.9790   36.4030   33.9690 C.3   210  VAL210      0.1692
     89  C         17.2250   37.6540   34.3810 C.2   210  VAL210      0.2593
     90  O         16.6240   37.7000   35.4670 O.2   210  VAL210     -0.2718
     91  CB        16.9830   35.2280   33.8770 C.3   210  VAL210      0.0266
     92  CG1       15.9030   35.5170   32.8160 C.3   210  VAL210      0.0020
     93  CG2       17.7450   33.9320   33.5710 C.3   210  VAL210      0.0020
     94  N         17.2330   38.6660   33.5130 N.am  211  SER211     -0.1938
     95  CA        16.7300   39.9800   33.8940 C.3   211  SER211      0.2055
     96  C         15.5730   40.4820   32.9860 C.2   211  SER211      0.2643
     97  O         14.4470   40.6240   33.4610 O.2   211  SER211     -0.2714
     98  CB        17.8880   40.9840   33.9500 C.3   211  SER211      0.2130
     99  OG        17.4240   42.2620   34.3290 O.3   211  SER211     -0.2179
    100  N         15.8360   40.7410   31.7100 N.am  212  TRP212     -0.1959
    101  CA        14.8290   41.2840   30.8000 C.3   212  TRP212      0.1771
    102  C         15.1160   41.0190   29.3410 C.2   212  TRP212      0.2620
    103  O         16.1540   40.5090   28.9680 O.2   212  TRP212     -0.2715
    104  CB        14.6280   42.7860   31.0310 C.3   212  TRP212      0.0590
    105  CG        15.7700   43.6780   30.7600 C.ar  212  TRP212      0.0006
    106  CD1       16.7920   43.9730   31.5900 C.ar  212  TRP212      0.0946
    107  CD2       15.9800   44.4570   29.5820 C.ar  212  TRP212      0.0152
    108  NE1       17.6420   44.8700   31.0100 N.ar  212  TRP212     -0.2442
    109  CE2       17.1640   45.1890   29.7710 C.ar  212  TRP212      0.0810
    110  CE3       15.2810   44.6060   28.3790 C.ar  212  TRP212      0.0012
    111  CZ2       17.6790   46.0600   28.8000 C.ar  212  TRP212      0.0191
    112  CZ3       15.7850   45.4410   27.4320 C.ar  212  TRP212      0.0001
    113  CH2       16.9740   46.1720   27.6390 C.ar  212  TRP212      0.0015
    114  N         14.1330   41.3720   28.5220 N.am  213  GLY213     -0.1940
    115  CA        14.2500   41.2670   27.0790 C.3   213  GLY213      0.2014
    116  C         12.9580   41.7780   26.5060 C.2   213  GLY213      0.2639
    117  O         11.9900   42.0410   27.2490 O.2   213  GLY213     -0.2714
    118  N         12.9610   41.9360   25.1780 N.am  214  GLN214     -0.1963
    119  CA        11.7820   42.2890   24.3980 C.3   214  GLN214      0.1733
    120  C         11.1120   40.9800   24.0300 C.2   214  GLN214      0.2617
    121  O         11.6260   40.2340   23.1900 O.2   214  GLN214     -0.2715
    122  CB        12.1920   43.0550   23.1450 C.3   214  GLN214      0.0408
    123  CG        11.0240   43.5060   22.2940 C.3   214  GLN214      0.0908
    124  CD        10.0050   44.2650   23.1060 C.2   214  GLN214      0.2608
    125  OE1        8.8840   43.8010   23.3100 O.2   214  GLN214     -0.2717
    126  NE2       10.4000   45.4260   23.6020 N.am  214  GLN214     -0.0878
    127  N         10.0000   40.6660   24.6910 N.am  215  GLY215     -0.1940
    128  CA         9.3750   39.3550   24.5260 C.3   215  GLY215      0.2014
    129  C         10.3450   38.2330   24.8980 C.2   215  GLY215      0.2639
    130  O         11.2840   38.4610   25.6490 O.2   215  GLY215     -0.2714
    131  N         10.1540   37.0430   24.3430 N.am  216  CYS216     -0.1967
    132  CA        11.1070   35.9590   24.5380 C.3   216  CYS216      0.1712
    133  C         11.3540   35.2900   23.1920 C.2   216  CYS216      0.2296
    134  O         10.4230   34.8540   22.5300 O.2   216  CYS216     -0.2864
    135  CB        10.5960   34.9420   25.5670 C.3   216  CYS216      0.0983
    136  SG         9.9440   35.6910   27.0460 S.3   216  CYS216     -0.0798
    137  N         18.0610   40.0210   21.8240 N.3   222  PHE222     -0.1227
    138  CA        18.7740   39.0830   22.6650 C.3   222  PHE222      0.1736
    139  C         18.2230   39.1740   24.0690 C.2   222  PHE222      0.2596
    140  O         17.6030   40.1800   24.4600 O.2   222  PHE222     -0.2718
    141  CB        20.2800   39.4190   22.7430 C.3   222  PHE222      0.0547
    142  CG        20.9790   39.3430   21.4150 C.ar  222  PHE222     -0.0202
    143  CD1       21.6430   38.1950   21.0490 C.ar  222  PHE222     -0.0042
    144  CD2       20.9570   40.4170   20.5420 C.ar  222  PHE222     -0.0042
    145  CE1       22.2780   38.1080   19.8150 C.ar  222  PHE222     -0.0003
    146  CE2       21.5930   40.3480   19.3310 C.ar  222  PHE222     -0.0003
    147  CZ        22.2610   39.1900   18.9630 C.ar  222  PHE222     -0.0000
    148  N         18.5480   38.1680   24.8660 N.am  223  GLY223     -0.1942
    149  CA        18.3020   38.2490   26.2850 C.3   223  GLY223      0.2014
    150  C         19.2560   39.2040   26.9720 C.2   223  GLY223      0.2639
    151  O         20.4040   39.3230   26.5800 O.2   223  GLY223     -0.2714
    152  N         18.7700   39.8730   28.0130 N.am  224  VAL224     -0.1963
    153  CA        19.6110   40.7720   28.8050 C.3   224  VAL224      0.1727
    154  C         19.7030   40.2420   30.2250 C.2   224  VAL224      0.2616
    155  O         18.7000   39.8300   30.8390 O.2   224  VAL224     -0.2715
    156  CB        19.0970   42.2390   28.7750 C.3   224  VAL224      0.0290
    157  CG1       20.0660   43.1660   29.5070 C.3   224  VAL224      0.0023
    158  CG2       18.9080   42.6910   27.3460 C.3   224  VAL224      0.0023
    159  N         20.9270   40.2790   30.7470 N.am  225  TYR225     -0.1974
    160  CA        21.2890   39.6290   32.0080 C.3   225  TYR225      0.1639
    161  C         21.9860   40.6440   32.8820 C.2   225  TYR225      0.2290
    162  O         22.7380   41.4800   32.3700 O.2   225  TYR225     -0.2864
    163  CB        22.2080   38.4250   31.7420 C.3   225  TYR225      0.0560
    164  CG        21.5040   37.3540   30.9380 C.ar  225  TYR225     -0.0198
    165  CD1       21.4200   37.4360   29.5500 C.ar  225  TYR225     -0.0009
    166  CD2       20.8650   36.2990   31.5740 C.ar  225  TYR225     -0.0009
    167  CE1       20.7270   36.4760   28.8180 C.ar  225  TYR225      0.0417
    168  CE2       20.1810   35.3640   30.8880 C.ar  225  TYR225      0.0417
    169  CZ        20.1110   35.4300   29.4950 C.ar  225  TYR225      0.1957
    170  OH        19.4160   34.4840   28.7470 O.3   225  TYR225     -0.2866
@<TRIPOS>BOND
     1   147   146   ar
     2   147   145   ar
     3   146   144   ar
     4   145   143   ar
     5   144   142   ar
     6   143   142   ar
     7   142   141    1
     8   137   138    1
     9   123   124    1
    10   123   122    1
    11   134   133    2
    12   138   141    1
    13   138   139    1
    14   124   125    2
    15   124   126   am
    16   122   119    1
    17   121   120    2
    18   133   132    1
    19    52    53    1
    20   120   119    1
    21   120   127   am
    22   139   140    2
    23   139   148   am
    24   131   132    1
    25   131   129   am
    26    56    53    1
    27    56    57    1
    28   119   118    1
    29   128   127    1
    30   128   129    1
    31   132   135    1
    32    59    57   ar
    33    53    54    1
    34   148   149    1
    35   129   130    2
    36    57    58   ar
    37   118   116   am
    38   135   136    1
    39    54    55    2
    40    54    60   am
    41   149   150    1
    42    48    47    2
    43   116   115    1
    44   116   117    2
    45   151   150    2
    46    45    51    1
    47    45    46    1
    48   150   152   am
    49    51    50    1
    50   136    71    1
    51   115   114    1
    52    60    61    1
    53   158   156    1
    54    47    46    1
    55   112   113   ar
    56   112   110   ar
    57    63    62    2
    58   113   111   ar
    59    46    49    1
    60   152   153    1
    61    71    70    1
    62   110   107   ar
    63    62    61    1
    64    62    66   am
    65    61    64    1
    66    50    49    1
    67   114   102   am
    68    70    67    1
    69   170   169    1
    70   156   153    1
    71   156   157    1
    72   111   109   ar
    73   153   154    1
    74   167   169   ar
    75   167   165   ar
    76   103   102    2
    77    67    66    1
    78    67    68    1
    79   102   101    1
    80    65    64    1
    81   169   168   ar
    82   165   164   ar
    83   107   109   ar
    84   107   105   ar
    85   109   108   ar
    86   154   159   am
    87   154   155    2
    88    80    79    1
    89    68    72   am
    90    68    69    2
    91   159   160    1
    92    72    73    1
    93   105   104    1
    94   105   106   ar
    95   101   104    1
    96   101   100    1
    97   168   166   ar
    98   164   166   ar
    99   164   163    1
   100   108   106   ar
   101    79    78    1
   102    78    77    1
   103    77    76    1
   104   100    96   am
   105   163   160    1
   106    76    73    1
   107    73    74    1
   108   160   161    1
   109    36    34    1
   110   162   161    2
   111    35    34    1
   112    92    91    1
   113    34    31    1
   114    96    97    2
   115    96    95    1
   116    74    75    2
   117    94    95    1
   118    94    89   am
   119    93    91    1
   120    91    88    1
   121    95    98    1
   122    98    99    1
   123    88    89    1
   124    88    87    1
   125    31    30    1
   126    31    32    1
   127    89    90    2
   128    30    25   am
   129    86    85    1
   130    32    33    2
   131    81    82    1
   132    25    24    1
   133    25    26    2
   134    24    27    1
   135    24    23    1
   136    82    85    1
   137    82    83    1
   138    27    29    1
   139    27    28    1
   140     9    10   ar
   141     9     7   ar
   142    10     8   ar
   143    43    42   ar
   144     7     6   ar
   145     8     6   ar
   146    83    84    2
   147    41    42    1
   148    41    38    1
   149     6     5    1
   150    42    44   ar
   151     5     2    1
   152    37    38    1
   153    38    39    1
   154    40    39    2
   155    19    17   ar
   156    19    21   ar
   157     2     3    1
   158     2     1    1
   159    22    21    1
   160     4     3    2
   161    17    16   ar
   162    21    20   ar
   163    16    15    1
   164    16    18   ar
   165    20    18   ar
   166    12    13    1
   167    12    15    1
   168    12    11    1
   169    13    14    2
