@<TRIPOS>MOLECULE
tmp/2bz8A00.pdb
 160 159 0 0 0
SMALL
GASTEIGER

@<TRIPOS>ATOM
      1  N          3.4190   26.1790   43.7850 N.3     6  GLU6       -0.1231
      2  CA         2.7850   26.6020   42.5340 C.3     6  GLU6        0.1699
      3  C          1.9700   25.4530   41.9170 C.2     6  GLU6        0.2592
      4  O          0.9310   25.6710   41.2830 O.2     6  GLU6       -0.2718
      5  CB         3.8170   27.0730   41.5180 C.3     6  GLU6        0.0402
      6  CG         3.1520   27.4960   40.2330 C.3     6  GLU6        0.1161
      7  CD         4.1300   27.9550   39.2080 C.2     6  GLU6        0.3649
      8  OE1        3.6810   28.4510   38.1510 O.co2   6  GLU6       -0.2457
      9  OE2        5.3460   27.8170   39.4620 O.co2   6  GLU6       -0.2457
     10  N          2.4700   24.2350   42.0890 N.am    7  PHE7       -0.1962
     11  CA         1.7940   23.0500   41.6030 C.3     7  PHE7        0.1771
     12  C          1.7030   22.0580   42.7390 C.2     7  PHE7        0.2620
     13  O          2.5570   22.0440   43.6240 O.2     7  PHE7       -0.2715
     14  CB         2.5470   22.4190   40.4470 C.3     7  PHE7        0.0574
     15  CG         2.5880   23.2750   39.2250 C.ar    7  PHE7       -0.0200
     16  CD1        3.6370   24.1550   39.0160 C.ar    7  PHE7       -0.0042
     17  CD2        1.5780   23.1890   38.2720 C.ar    7  PHE7       -0.0042
     18  CE1        3.6820   24.9270   37.8790 C.ar    7  PHE7       -0.0003
     19  CE2        1.6170   23.9610   37.1320 C.ar    7  PHE7       -0.0003
     20  CZ         2.6730   24.8310   36.9330 C.ar    7  PHE7       -0.0000
     21  N          0.6610   21.2340   42.7100 N.am    8  ASP8       -0.1957
     22  CA         0.4320   20.2360   43.7410 C.3     8  ASP8        0.1840
     23  C          1.3070   19.0070   43.5730 C.2     8  ASP8        0.2622
     24  O          1.5790   18.5680   42.4520 O.2     8  ASP8       -0.2715
     25  CB        -1.0380   19.8160   43.7370 C.3     8  ASP8        0.1450
     26  CG        -1.9680   20.9820   43.9790 C.2     8  ASP8        0.3671
     27  OD1       -1.7840   22.0180   43.3090 O.co2   8  ASP8       -0.2456
     28  OD2       -2.8790   20.8660   44.8260 O.co2   8  ASP8       -0.2456
     29  N          1.7530   18.4620   44.7020 N.am    9  TYR9       -0.1974
     30  CA         2.5700   17.2640   44.6840 C.3     9  TYR9        0.1639
     31  C          2.2710   16.3030   45.8250 C.2     9  TYR9        0.2290
     32  O          2.3750   16.6490   47.0050 O.2     9  TYR9       -0.2864
     33  CB         4.0600   17.5890   44.7120 C.3     9  TYR9        0.0560
     34  CG         4.8850   16.3300   44.5720 C.ar    9  TYR9       -0.0198
     35  CD1        5.8300   15.9740   45.5330 C.ar    9  TYR9       -0.0009
     36  CD2        4.6700   15.4550   43.4980 C.ar    9  TYR9       -0.0009
     37  CE1        6.5400   14.7730   45.4320 C.ar    9  TYR9        0.0417
     38  CE2        5.3690   14.2600   43.3870 C.ar    9  TYR9        0.0417
     39  CZ         6.3020   13.9220   44.3560 C.ar    9  TYR9        0.1957
     40  OH         6.9920   12.7370   44.2450 O.3     9  TYR9       -0.2866
     41  N          5.3770   10.6510   47.0410 N.3    12  GLN12      -0.1231
     42  CA         5.3450    9.2310   46.7000 C.3    12  GLN12       0.1698
     43  C          6.3530    8.4290   47.5170 C.2    12  GLN12       0.2592
     44  O          6.6810    7.3030   47.1650 O.2    12  GLN12      -0.2718
     45  CB         5.6350    9.0450   45.2100 C.3    12  GLN12       0.0381
     46  CG         4.5690    9.6220   44.2850 C.3    12  GLN12       0.0905
     47  CD         5.0910    9.8940   42.8770 C.2    12  GLN12       0.2608
     48  OE1        5.7720    9.0580   42.2740 O.2    12  GLN12      -0.2717
     49  NE2        4.7680   11.0690   42.3450 N.am   12  GLN12      -0.0878
     50  N          6.8430    9.0130   48.6090 N.am   13  HIS13      -0.1976
     51  CA         7.8080    8.3410   49.4730 C.3    13  HIS13       0.1656
     52  C          7.7570    8.7820   50.9220 C.2    13  HIS13       0.2291
     53  O          7.4150    9.9210   51.2380 O.2    13  HIS13      -0.2864
     54  CB         9.2250    8.5440   48.9430 C.3    13  HIS13       0.0771
     55  CG         9.4980    7.7910   47.6840 C.ar   13  HIS13       0.0820
     56  ND1        9.5810    6.4160   47.6470 N.ar   13  HIS13      -0.2267
     57  CD2        9.6500    8.2130   46.4070 C.ar   13  HIS13       0.1154
     58  CE1        9.7710    6.0230   46.4000 C.ar   13  HIS13       0.1986
     59  NE2        9.8170    7.0940   45.6290 N.ar   13  HIS13      -0.2212
     60  N          9.9640    9.6630   52.8500 N.3    15  ASP15      -0.1225
     61  CA        10.7540   10.8660   53.1130 C.3    15  ASP15       0.1805
     62  C         10.4150   12.0650   52.2370 C.2    15  ASP15       0.2597
     63  O         11.1750   13.0350   52.1870 O.2    15  ASP15      -0.2718
     64  CB        12.2450   10.5740   52.9640 C.3    15  ASP15       0.1424
     65  CG        12.6190   10.2160   51.5530 C.2    15  ASP15       0.3668
     66  OD1       13.8250   10.2730   51.2290 O.co2  15  ASP15      -0.2456
     67  OD2       11.7030    9.8730   50.7730 O.co2  15  ASP15      -0.2456
     68  N          9.2820   12.0030   51.5450 N.am   16  GLU16      -0.1979
     69  CA         8.8650   13.1120   50.6940 C.3    16  GLU16       0.1602
     70  C          7.8040   13.9730   51.3670 C.2    16  GLU16       0.2287
     71  O          7.0070   13.4800   52.1650 O.2    16  GLU16      -0.2864
     72  CB         8.3510   12.5940   49.3520 C.3    16  GLU16       0.0415
     73  CG         9.4500   12.4270   48.3240 C.3    16  GLU16       0.1163
     74  CD         8.9550   11.7660   47.0570 C.2    16  GLU16       0.3649
     75  OE1        7.7530   11.9090   46.7510 O.co2  16  GLU16      -0.2457
     76  OE2        9.7660   11.1180   46.3620 O.co2  16  GLU16      -0.2457
     77  N         19.4970   21.7760   47.1860 N.3    31  GLU31      -0.1231
     78  CA        20.4170   20.7090   46.7910 C.3    31  GLU31       0.1699
     79  C         20.1160   20.3690   45.3320 C.2    31  GLU31       0.2592
     80  O         18.9810   20.0200   45.0120 O.2    31  GLU31      -0.2718
     81  CB        20.1770   19.4730   47.6600 C.3    31  GLU31       0.0402
     82  CG        21.1220   18.3130   47.4040 C.3    31  GLU31       0.1161
     83  CD        22.2570   18.2570   48.4020 C.2    31  GLU31       0.3649
     84  OE1       23.0770   17.3210   48.3120 O.co2  31  GLU31      -0.2457
     85  OE2       22.3280   19.1440   49.2800 O.co2  31  GLU31      -0.2457
     86  N         21.1170   20.4680   44.4520 N.am   32  ASP32      -0.1960
     87  CA        20.9410   20.1780   43.0180 C.3    32  ASP32       0.1840
     88  C         20.1980   18.8780   42.7130 C.2    32  ASP32       0.2623
     89  O         20.1980   17.9450   43.5150 O.2    32  ASP32      -0.2715
     90  CB        22.2970   20.1210   42.2960 C.3    32  ASP32       0.1450
     91  CG        22.9160   21.4910   42.0840 C.2    32  ASP32       0.3671
     92  OD1       23.7480   21.6320   41.1500 O.co2  32  ASP32      -0.2456
     93  OD2       22.5760   22.4190   42.8510 O.co2  32  ASP32      -0.2456
     94  N         19.5740   18.8150   41.5420 N.am   33  GLY33      -0.1940
     95  CA        18.8750   17.6010   41.1740 C.3    33  GLY33       0.2014
     96  C         17.3740   17.6920   40.9950 C.2    33  GLY33       0.2639
     97  O         16.7660   16.7960   40.4060 O.2    33  GLY33      -0.2714
     98  N         16.7640   18.7510   41.5100 N.am   34  GLY34      -0.1939
     99  CA        15.3270   18.8990   41.3580 C.3    34  GLY34       0.2014
    100  C         14.5010   18.6390   42.6010 C.2    34  GLY34       0.2638
    101  O         13.2800   18.5290   42.5320 O.2    34  GLY34      -0.2714
    102  N         15.1560   18.5370   43.7470 N.am   35  TRP35      -0.1973
    103  CA        14.4350   18.2890   44.9860 C.3    35  TRP35       0.1640
    104  C         14.9640   19.1690   46.1190 C.2    35  TRP35       0.2290
    105  O         16.1750   19.3550   46.2640 O.2    35  TRP35      -0.2864
    106  CB        14.5280   16.7960   45.3780 C.3    35  TRP35       0.0576
    107  CG        13.8550   15.8710   44.3970 C.ar   35  TRP35       0.0006
    108  CD1       14.3360   15.4680   43.1840 C.ar   35  TRP35       0.0946
    109  CD2       12.5250   15.3340   44.4960 C.ar   35  TRP35       0.0152
    110  NE1       13.3860   14.7280   42.5170 N.ar   35  TRP35      -0.2442
    111  CE2       12.2660   14.6310   43.3020 C.ar   35  TRP35       0.0810
    112  CE3       11.5250   15.3870   45.4790 C.ar   35  TRP35       0.0012
    113  CZ2       11.0500   13.9860   43.0620 C.ar   35  TRP35       0.0191
    114  CZ3       10.3140   14.7450   45.2370 C.ar   35  TRP35       0.0001
    115  CH2       10.0890   14.0550   44.0390 C.ar   35  TRP35       0.0015
    116  N         10.9900   15.9820   51.3270 N.3    46  LEU46      -0.1245
    117  CA        11.5520   16.3910   50.0490 C.3    46  LEU46       0.1561
    118  C         10.4520   16.6120   49.0280 C.2    46  LEU46       0.2260
    119  O          9.5100   15.8230   48.9340 O.2    46  LEU46      -0.2867
    120  CB        12.5200   15.3290   49.5260 C.3    46  LEU46       0.0270
    121  CG        13.9110   15.3220   50.1520 C.3    46  LEU46       0.0019
    122  CD1       14.6970   14.1640   49.5930 C.3    46  LEU46       0.0001
    123  CD2       14.6150   16.6360   49.8570 C.3    46  LEU46       0.0001
    124  N          9.7560   18.4650   44.8130 N.3    48  PRO48      -0.2116
    125  CA        10.4080   19.0050   43.6070 C.3    48  PRO48       0.1372
    126  C         10.4050   20.5510   43.6090 C.2    48  PRO48       0.2244
    127  O          9.3460   21.1780   43.6990 O.2    48  PRO48      -0.2868
    128  CB         9.5920   18.3880   42.4650 C.3    48  PRO48       0.0268
    129  CG         8.2440   18.1240   43.0890 C.3    48  PRO48       0.0207
    130  CD         8.5800   17.6440   44.4650 C.3    48  PRO48       0.0892
    131  N         10.9330   22.7910   41.2580 N.3    50  ASN50      -0.1225
    132  CA        10.3210   23.4490   40.1140 C.3    50  ASN50       0.1785
    133  C          8.8050   23.4820   40.3160 C.2    50  ASN50       0.2597
    134  O          8.0620   23.9900   39.4710 O.2    50  ASN50      -0.2718
    135  CB        10.6870   22.6970   38.8340 C.3    50  ASN50       0.1169
    136  CG        10.1840   21.2670   38.8400 C.2    50  ASN50       0.2627
    137  OD1       10.1940   20.6060   39.8760 O.2    50  ASN50      -0.2716
    138  ND2        9.7480   20.7790   37.6780 N.am   50  ASN50      -0.0877
    139  N          8.3560   22.9380   41.4470 N.am   51  PHE51      -0.1976
    140  CA         6.9330   22.9180   41.7840 C.3    51  PHE51       0.1639
    141  C          6.5580   24.0550   42.7260 C.2    51  PHE51       0.2290
    142  O          5.4070   24.1940   43.1210 O.2    51  PHE51      -0.2864
    143  CB         6.5440   21.6000   42.4460 C.3    51  PHE51       0.0560
    144  CG         6.2240   20.5040   41.4800 C.ar   51  PHE51      -0.0200
    145  CD1        5.0900   19.7160   41.6680 C.ar   51  PHE51      -0.0042
    146  CD2        7.0600   20.2430   40.3930 C.ar   51  PHE51      -0.0042
    147  CE1        4.7860   18.6920   40.7960 C.ar   51  PHE51      -0.0003
    148  CE2        6.7700   19.2150   39.5080 C.ar   51  PHE51      -0.0003
    149  CZ         5.6280   18.4360   39.7080 C.ar   51  PHE51      -0.0000
    150  N          7.6450   28.3310   44.0410 N.3    53  ARG53      -0.1245
    151  CA         8.3420   29.5660   43.7340 C.3    53  ARG53       0.1563
    152  C          8.9870   30.0650   45.0180 C.2    53  ARG53       0.2260
    153  O          8.3380   30.1190   46.0780 O.2    53  ARG53      -0.2867
    154  CB         7.3640   30.6090   43.1870 C.3    53  ARG53       0.0307
    155  CG         6.7150   30.2150   41.8690 C.3    53  ARG53       0.0489
    156  CD         7.7340   30.1210   40.7480 C.3    53  ARG53       0.2205
    157  NE         7.0790   29.8570   39.4740 N.pl3  53  ARG53      -0.0865
    158  CZ         7.4780   30.3620   38.3140 C.cat  53  ARG53       0.5346
    159  NH1        8.5360   31.1560   38.2720 N.pl3  53  ARG53       0.1354
    160  NH2        6.8020   30.1010   37.2050 N.pl3  53  ARG53       0.1354
@<TRIPOS>BOND
     1    20    19   ar
     2    20    18   ar
     3    19    17   ar
     4   160   158    1
     5   138   136   am
     6    18    16   ar
     7     8     7   ar
     8   159   158    1
     9    17    15   ar
    10   158   157    2
    11   135   136    1
    12   135   132    1
    13   136   137    2
    14    16    15   ar
    15     7     9   ar
    16     7     6    1
    17    15    14    1
    18   134   133    2
    19   157   156    1
    20   148   149   ar
    21   148   146   ar
    22   149   147   ar
    23   132   133    1
    24   132   131    1
    25     6     5    1
    26   133   139   am
    27   146   144   ar
    28    97    96    2
    29    14    11    1
    30   156   155    1
    31   147   145   ar
    32    96    95    1
    33    96    98   am
    34    92    91   ar
    35    95    94    1
    36     4     3    2
    37    99    98    1
    38    99   100    1
    39   139   140    1
    40   144   145   ar
    41   144   143    1
    42     5     2    1
    43    94    88   am
    44    11    10    1
    45    11    12    1
    46   140   143    1
    47   140   141    1
    48   155   154    1
    49     3    10   am
    50     3     2    1
    51    91    90    1
    52    91    93   ar
    53    48    47    2
    54    90    87    1
    55    49    47   am
    56    24    23    2
    57   128   129    1
    58   128   125    1
    59   110   108   ar
    60   110   111   ar
    61   101   100    2
    62     2     1    1
    63   100   102   am
    64    21    12   am
    65    21    22    1
    66    88    87    1
    67    88    89    2
    68   141   142    2
    69    12    13    2
    70    47    46    1
    71    87    86    1
    72   113   111   ar
    73   113   115   ar
    74   129   130    1
    75   108   107   ar
    76   154   151    1
    77   111   109   ar
    78    27    26   ar
    79    38    36   ar
    80    38    39   ar
    81    36    34   ar
    82    23    22    1
    83    23    29   am
    84   125   126    1
    85   125   124    1
    86   126   127    2
    87   151   150    1
    88   151   152    1
    89    25    22    1
    90    25    26    1
    91   102   103    1
    92    26    28   ar
    93   115   114   ar
    94    40    39    1
    95    46    45    1
    96    39    37   ar
    97   107   109   ar
    98   107   106    1
    99    86    79   am
   100   130   124    1
   101   109   112   ar
   102    34    33    1
   103    34    35   ar
   104    30    29    1
   105    30    33    1
   106    30    31    1
   107   103   106    1
   108   103   104    1
   109    80    79    2
   110   152   153    2
   111    45    42    1
   112   114   112   ar
   113    79    78    1
   114    37    35   ar
   115    59    58   ar
   116    59    57   ar
   117    31    32    2
   118   104   105    2
   119    76    74   ar
   120    58    56   ar
   121    57    55   ar
   122    42    41    1
   123    42    43    1
   124    75    74   ar
   125    78    77    1
   126    78    81    1
   127    74    73    1
   128    44    43    2
   129    82    81    1
   130    82    83    1
   131    43    50   am
   132    56    55   ar
   133    55    54    1
   134    84    83   ar
   135    73    72    1
   136    83    85   ar
   137    50    51    1
   138   119   118    2
   139    54    51    1
   140   118   117    1
   141    72    69    1
   142    51    52    1
   143   120   117    1
   144   120   121    1
   145   122   121    1
   146   123   121    1
   147   117   116    1
   148    69    70    1
   149    69    68    1
   150    67    65   ar
   151    52    53    2
   152    66    65   ar
   153    70    71    2
   154    68    62   am
   155    65    64    1
   156    63    62    2
   157    62    61    1
   158    60    61    1
   159    64    61    1
