@<TRIPOS>MOLECULE
tmp/2bzgA01.pdb
 106 102 0 0 0
SMALL
GASTEIGER

@<TRIPOS>ATOM
      1  N         21.0020   30.2790   20.6250 N.3    48  ARG48      -0.1245
      2  CA        20.2430   29.2910   19.8700 C.3    48  ARG48       0.1563
      3  C         21.2110   28.1620   19.5790 C.2    48  ARG48       0.2260
      4  O         22.2650   28.3850   18.9850 O.2    48  ARG48      -0.2867
      5  CB        19.7560   29.8510   18.5360 C.3    48  ARG48       0.0307
      6  CG        18.4390   30.6330   18.5680 C.3    48  ARG48       0.0489
      7  CD        17.9310   30.7870   17.1330 C.3    48  ARG48       0.2205
      8  NE        16.8750   29.8250   16.7940 N.pl3  48  ARG48      -0.0865
      9  CZ        16.6120   29.3900   15.5670 C.cat  48  ARG48       0.5346
     10  NH1       17.3620   29.7930   14.5410 N.pl3  48  ARG48       0.1354
     11  NH2       15.6080   28.5420   15.3640 N.pl3  48  ARG48       0.1354
     12  N          3.0420   21.1750   15.0760 N.3    93  GLU93      -0.1231
     13  CA         2.6830   21.9950   13.9120 C.3    93  GLU93       0.1684
     14  C          3.2280   21.3470   12.6540 C.2    93  GLU93       0.2434
     15  O          4.1750   20.5550   12.7220 O.2    93  GLU93      -0.2733
     16  CB         3.3190   23.3860   13.9900 C.3    93  GLU93       0.0402
     17  CG         2.9800   24.1990   15.2300 C.3    93  GLU93       0.1161
     18  CD         3.6580   25.5450   15.2480 C.2    93  GLU93       0.3649
     19  OE1        4.3120   25.9060   14.2470 O.co2  93  GLU93      -0.2457
     20  OE2        3.5370   26.2490   16.2630 O.co2  93  GLU93      -0.2457
     21  N          2.6480   21.6840   11.4890 N.am   94  PRO94      -0.2718
     22  CA         3.2390   21.1930   10.2620 C.3    94  PRO94       0.1535
     23  C          4.5490   21.9060    9.9350 C.2    94  PRO94       0.2598
     24  O          4.7240   23.0740   10.2670 O.2    94  PRO94      -0.2715
     25  CB         2.1790   21.5320    9.2010 C.3    94  PRO94       0.0310
     26  CG         1.5090   22.7270    9.7310 C.3    94  PRO94       0.0237
     27  CD         1.4500   22.5160   11.2390 C.3    94  PRO94       0.0939
     28  N          5.4600   21.1990    9.2680 N.am   95  ILE95      -0.1964
     29  CA         6.5340   21.8740    8.5660 C.3    95  ILE95       0.1727
     30  C          6.0020   22.0970    7.1610 C.2    95  ILE95       0.2617
     31  O          5.9860   21.1800    6.3290 O.2    95  ILE95      -0.2715
     32  CB         7.8500   21.0440    8.5580 C.3    95  ILE95       0.0290
     33  CG1        8.3370   20.7780    9.9810 C.3    95  ILE95       0.0022
     34  CG2        8.9150   21.7800    7.7280 C.3    95  ILE95       0.0023
     35  CD1        9.2860   19.5570   10.0940 C.3    95  ILE95       0.0001
     36  N          5.5110   23.3110    6.9110 N.am   96  THR96      -0.1937
     37  CA         4.7000   23.5480    5.7050 C.3    96  THR96       0.2028
     38  C          5.4800   23.3060    4.4170 C.2    96  THR96       0.2642
     39  O          4.9000   22.9450    3.3940 O.2    96  THR96      -0.2714
     40  CB         4.0680   24.9520    5.7080 C.3    96  THR96       0.1808
     41  OG1        5.0920   25.9470    5.6920 O.3    96  THR96      -0.2208
     42  CG2        3.2100   25.1340    6.9420 C.3    96  THR96       0.0379
     43  N          6.7960   23.4970    4.4820 N.am   97  GLU97      -0.1976
     44  CA         7.6460   23.3790    3.3020 C.3    97  GLU97       0.1602
     45  C          7.8680   21.9390    2.8480 C.2    97  GLU97       0.2287
     46  O          8.2210   21.6940    1.6810 O.2    97  GLU97      -0.2864
     47  CB         9.0110   24.0330    3.5520 C.3    97  GLU97       0.0415
     48  CG         8.9210   25.5100    3.9740 C.3    97  GLU97       0.1163
     49  CD         8.8360   25.7400    5.4590 C.2    97  GLU97       0.3649
     50  OE1        8.5500   24.8070    6.2290 O.co2  97  GLU97      -0.2457
     51  OE2        9.0430   26.9010    5.8460 O.co2  97  GLU97      -0.2457
     52  N          6.7890   19.5860   13.1600 N.3   103  VAL103     -0.1245
     53  CA         7.6920   20.0290   14.2180 C.3   103  VAL103      0.1561
     54  C          6.9990   19.8760   15.5770 C.2   103  VAL103      0.2260
     55  O          5.8050   20.1870   15.7260 O.2   103  VAL103     -0.2867
     56  CB         8.2200   21.4520   13.9500 C.3   103  VAL103      0.0252
     57  CG1        7.0610   22.4510   13.8860 C.3   103  VAL103      0.0019
     58  CG2        9.2730   21.8480   15.0120 C.3   103  VAL103      0.0019
     59  N          6.9130   20.9490   19.4250 N.3   105  LYS105     -0.1245
     60  CA         7.3190   22.1060   20.2080 C.3   105  LYS105      0.1561
     61  C          7.0050   21.9210   21.6780 C.2   105  LYS105      0.2260
     62  O          5.8480   21.7010   22.0770 O.2   105  LYS105     -0.2867
     63  CB         6.6620   23.3770   19.6750 C.3   105  LYS105      0.0271
     64  CG         6.8830   23.5370   18.1820 C.3   105  LYS105      0.0035
     65  CD         6.1140   24.6900   17.6190 C.3   105  LYS105      0.0206
     66  CE         6.8840   25.9750   17.7150 C.3   105  LYS105      0.1093
     67  NZ         6.2610   27.0140   16.8420 N.3   105  LYS105     -0.1314
     68  N         12.3200   19.0610   14.8820 N.3   114  TYR114     -0.1241
     69  CA        11.8150   18.8880   13.5310 C.3   114  TYR114      0.1605
     70  C         11.8420   17.4170   13.1900 C.2   114  TYR114      0.2264
     71  O         12.9230   16.7930   13.2440 O.2   114  TYR114     -0.2867
     72  CB        12.7100   19.6170   12.5340 C.3   114  TYR114      0.0534
     73  CG        12.5100   21.1070   12.4230 C.ar  114  TYR114     -0.0201
     74  CD1       12.2370   21.6680   11.1680 C.ar  114  TYR114     -0.0009
     75  CD2       12.6540   21.9550   13.5320 C.ar  114  TYR114     -0.0009
     76  CE1       12.0850   23.0320   11.0140 C.ar  114  TYR114      0.0417
     77  CE2       12.5050   23.3340   13.3990 C.ar  114  TYR114      0.0417
     78  CZ        12.2090   23.8560   12.1290 C.ar  114  TYR114      0.1957
     79  OH        12.0560   25.2160   11.9390 O.3   114  TYR114     -0.2866
     80  N         13.5870   25.0600    4.6420 N.3   124  THR124     -0.1203
     81  CA        12.8080   25.6500    5.7550 C.3   124  THR124      0.1994
     82  C         13.3880   26.9880    6.2030 C.2   124  THR124      0.2618
     83  O         14.4880   27.3830    5.7680 O.2   124  THR124     -0.2717
     84  CB        12.7850   24.7390    6.9910 C.3   124  THR124      0.1784
     85  OG1       14.0550   24.7950    7.6540 O.3   124  THR124     -0.2211
     86  CG2       12.4480   23.3040    6.5970 C.3   124  THR124      0.0376
     87  N         12.6670   27.6460    7.1180 N.am  125  ASN125     -0.1960
     88  CA        13.1060   28.8880    7.7530 C.3   125  ASN125      0.1819
     89  C         13.5970   28.6040    9.1780 C.2   125  ASN125      0.2621
     90  O         13.3230   29.3530   10.1230 O.2   125  ASN125     -0.2715
     91  CB        11.9750   29.9170    7.8130 C.3   125  ASN125      0.1195
     92  CG        11.5320   30.3950    6.4560 C.2   125  ASN125      0.2630
     93  OD1       10.3320   30.5410    6.2110 O.2   125  ASN125     -0.2716
     94  ND2       12.4880   30.6620    5.5620 N.am  125  ASN125     -0.0877
     95  N         14.3130   27.4990    9.3350 N.am  126  ILE126     -0.1963
     96  CA        14.8870   27.1400   10.6340 C.3   126  ILE126      0.1727
     97  C         15.8550   28.2270   11.1530 C.2   126  ILE126      0.2616
     98  O         16.0420   28.3910   12.3630 O.2   126  ILE126     -0.2715
     99  CB        15.5560   25.7430   10.5600 C.3   126  ILE126      0.0290
    100  CG1       15.9890   25.2480   11.9480 C.3   126  ILE126      0.0022
    101  CG2       16.7090   25.7360    9.5440 C.3   126  ILE126      0.0023
    102  CD1       16.4130   23.7860   11.9860 C.3   126  ILE126      0.0001
    103  N         16.4670   28.9710   10.2380 N.am  127  GLY127     -0.1955
    104  CA        17.3060   30.1030   10.6390 C.3   127  GLY127      0.1869
    105  C         18.7260   29.7360   11.0450 C.2   127  GLY127      0.2309
    106  O         19.2630   28.7100   10.6100 O.2   127  GLY127     -0.2863
@<TRIPOS>BOND
     1    46    45    2
     2    45    44    1
     3    44    47    1
     4    44    43    1
     5    39    38    2
     6    47    48    1
     7    48    49    1
     8    38    43   am
     9    38    37    1
    10    80    81    1
    11    49    51   ar
    12    49    50   ar
    13    94    92   am
    14    41    40    1
    15    37    40    1
    16    37    36    1
    17    40    42    1
    18    81    82    1
    19    81    84    1
    20    83    82    2
    21    82    87   am
    22    93    92    2
    23    31    30    2
    24    92    91    1
    25    86    84    1
    26    36    30   am
    27    84    85    1
    28    87    88    1
    29    30    29    1
    30    34    32    1
    31    88    91    1
    32    88    89    1
    33    32    29    1
    34    32    33    1
    35    29    28    1
    36    89    95   am
    37    89    90    2
    38    25    26    1
    39    25    22    1
    40    28    23   am
    41    95    96    1
    42   101    99    1
    43    26    27    1
    44    23    22    1
    45    23    24    2
    46    33    35    1
    47   103   104    1
    48   103    97   am
    49    22    21    1
    50    99    96    1
    51    99   100    1
    52   106   105    2
    53    96    97    1
    54   104   105    1
    55    76    74   ar
    56    76    78   ar
    57    97    98    2
    58    74    73   ar
    59    27    21    1
    60    21    14   am
    61    79    78    1
    62   100   102    1
    63    78    77   ar
    64    73    72    1
    65    73    75   ar
    66    72    69    1
    67    14    15    2
    68    14    13    1
    69    52    53    1
    70    70    71    2
    71    70    69    1
    72    77    75   ar
    73    69    68    1
    74    57    56    1
    75    13    16    1
    76    13    12    1
    77    56    53    1
    78    56    58    1
    79    16    17    1
    80    53    54    1
    81    19    18   ar
    82    10     9    1
    83    17    18    1
    84    18    20   ar
    85    11     9    1
    86     9     8    2
    87    54    55    2
    88     8     7    1
    89    67    66    1
    90     7     6    1
    91    65    66    1
    92    65    64    1
    93    64    63    1
    94     5     6    1
    95     5     2    1
    96     4     3    2
    97    59    60    1
    98     3     2    1
    99    63    60    1
   100     2     1    1
   101    60    61    1
   102    61    62    2
