@<TRIPOS>MOLECULE
tmp/2bziA00.pdb
 148 138 0 0 0
SMALL
GASTEIGER

@<TRIPOS>ATOM
      1  N        -41.9960    4.8770    4.7260 N.3    12  LEU12      -0.1245
      2  CA       -42.4720    3.5630    5.1630 C.3    12  LEU12       0.1561
      3  C        -41.4000    2.8080    5.9430 C.2    12  LEU12       0.2260
      4  O        -41.7160    1.9630    6.7830 O.2    12  LEU12      -0.2867
      5  CB       -42.9150    2.7160    3.9660 C.3    12  LEU12       0.0270
      6  CG       -44.1160    3.2310    3.1530 C.3    12  LEU12       0.0019
      7  CD1      -44.3390    2.3770    1.8980 C.3    12  LEU12       0.0001
      8  CD2      -45.3720    3.2520    4.0030 C.3    12  LEU12       0.0001
      9  N        -31.7910   -1.9990    2.0850 N.3    17  PHE17      -0.1241
     10  CA       -32.4380   -1.7700    0.8000 C.3    17  PHE17       0.1605
     11  C        -32.5060   -0.3010    0.3600 C.2    17  PHE17       0.2264
     12  O        -32.8130   -0.0230   -0.7990 O.2    17  PHE17      -0.2867
     13  CB       -33.8600   -2.3570    0.8300 C.3    17  PHE17       0.0534
     14  CG       -34.6970   -1.8860    1.9990 C.ar   17  PHE17      -0.0203
     15  CD1      -34.7750   -2.6360    3.1660 C.ar   17  PHE17      -0.0042
     16  CD2      -35.3980   -0.6940    1.9330 C.ar   17  PHE17      -0.0042
     17  CE1      -35.5230   -2.2010    4.2360 C.ar   17  PHE17      -0.0003
     18  CE2      -36.1510   -0.2590    3.0020 C.ar   17  PHE17      -0.0003
     19  CZ       -36.2170   -1.0100    4.1500 C.ar   17  PHE17      -0.0000
     20  N        -37.6480    3.7690    1.6390 N.3    20  VAL20      -0.1245
     21  CA       -38.8820    3.5320    0.8880 C.3    20  VAL20       0.1561
     22  C        -39.9900    4.4620    1.4080 C.2    20  VAL20       0.2260
     23  O        -40.2470    4.4910    2.6100 O.2    20  VAL20      -0.2867
     24  CB       -39.3560    2.0540    1.0320 C.3    20  VAL20       0.0252
     25  CG1      -40.6890    1.8320    0.3330 C.3    20  VAL20       0.0019
     26  CG2      -38.3100    1.0810    0.4870 C.3    20  VAL20       0.0019
     27  N        -44.9310    2.7710   -4.2150 N.3    33  ALA33      -0.1245
     28  CA       -43.8380    2.8700   -3.2660 C.3    33  ALA33       0.1562
     29  C        -42.6390    3.3970   -4.0380 C.2    33  ALA33       0.2260
     30  O        -42.3920    2.9980   -5.1790 O.2    33  ALA33      -0.2867
     31  CB       -43.5390    1.5180   -2.6350 C.3    33  ALA33       0.0290
     32  N        -38.6020    3.9580   -3.8220 N.3    35  LYS35      -0.1245
     33  CA       -37.4030    3.4850   -3.1450 C.3    35  LYS35       0.1561
     34  C        -36.1790    4.2260   -3.6520 C.2    35  LYS35       0.2260
     35  O        -35.8740    4.2070   -4.8470 O.2    35  LYS35      -0.2867
     36  CB       -37.2250    1.9860   -3.3640 C.3    35  LYS35       0.0271
     37  CG       -36.0830    1.3860   -2.5580 C.3    35  LYS35       0.0035
     38  CD       -36.0630   -0.1160   -2.6820 C.3    35  LYS35       0.0206
     39  CE       -35.3840   -0.5440   -3.9480 C.3    35  LYS35       0.1093
     40  NZ       -33.9250   -0.6450   -3.7170 N.3    35  LYS35      -0.1314
     41  N        -30.7690   -4.7700   -9.3230 N.3    57  GLU57      -0.1245
     42  CA       -32.1780   -4.9180   -8.9280 C.3    57  GLU57       0.1567
     43  C        -33.1140   -4.4420  -10.0580 C.2    57  GLU57       0.2260
     44  O        -34.1530   -5.0540  -10.2840 O.2    57  GLU57      -0.2867
     45  CB       -32.5090   -4.2330   -7.5840 C.3    57  GLU57       0.0388
     46  CG       -34.0320   -4.1810   -7.3260 C.3    57  GLU57       0.1160
     47  CD       -34.4750   -3.8140   -5.9080 C.2    57  GLU57       0.3649
     48  OE1      -33.8130   -2.9470   -5.2710 O.co2  57  GLU57      -0.2457
     49  OE2      -35.5250   -4.3930   -5.4660 O.co2  57  GLU57      -0.2457
     50  N        -44.1710   -7.6920   -6.6250 N.3    72  ILE72      -0.1245
     51  CA       -44.3840   -6.2430   -6.7740 C.3    72  ILE72       0.1561
     52  C        -43.6510   -5.7910   -8.0330 C.2    72  ILE72       0.2260
     53  O        -42.4540   -6.0340   -8.1830 O.2    72  ILE72      -0.2867
     54  CB       -43.8790   -5.4340   -5.5390 C.3    72  ILE72       0.0252
     55  CG1      -44.7550   -5.7040   -4.3080 C.3    72  ILE72       0.0019
     56  CG2      -43.8300   -3.9060   -5.8300 C.3    72  ILE72       0.0019
     57  CD1      -46.2120   -5.2770   -4.4530 C.3    72  ILE72       0.0001
     58  N        -42.5590    1.5250   -7.6010 N.3    88  LEU88      -0.1231
     59  CA       -43.0210    0.1660   -7.4080 C.3    88  LEU88       0.1693
     60  C        -44.4940    0.1910   -7.0430 C.2    88  LEU88       0.2592
     61  O        -44.9730    1.1660   -6.4560 O.2    88  LEU88      -0.2718
     62  CB       -42.2290   -0.4830   -6.2740 C.3    88  LEU88       0.0284
     63  CG       -40.7280   -0.6120   -6.5350 C.3    88  LEU88       0.0019
     64  CD1      -39.9110   -0.4190   -5.2750 C.3    88  LEU88       0.0001
     65  CD2      -40.4050   -1.9460   -7.1930 C.3    88  LEU88       0.0001
     66  N        -45.1990   -0.8880   -7.3840 N.am   89  GLU89      -0.1966
     67  CA       -46.5910   -1.0660   -6.9730 C.3    89  GLU89       0.1733
     68  C        -46.6820   -1.0400   -5.4700 C.2    89  GLU89       0.2616
     69  O        -45.7580   -1.4770   -4.7780 O.2    89  GLU89      -0.2715
     70  CB       -47.1520   -2.4120   -7.4270 C.3    89  GLU89       0.0429
     71  CG       -47.1870   -2.6350   -8.9040 C.3    89  GLU89       0.1163
     72  CD       -47.8460   -3.9510   -9.2240 C.2    89  GLU89       0.3649
     73  OE1      -47.2720   -5.0060   -8.8450 O.co2  89  GLU89      -0.2457
     74  OE2      -48.9400   -3.9230   -9.8330 O.co2  89  GLU89      -0.2457
     75  N        -47.8130   -0.5460   -4.9820 N.am   90  ARG90      -0.1964
     76  CA       -48.1260   -0.5530   -3.5670 C.3    90  ARG90       0.1714
     77  C        -49.5590   -1.0300   -3.3670 C.2    90  ARG90       0.2458
     78  O        -50.5060   -0.3120   -3.6970 O.2    90  ARG90      -0.2730
     79  CB       -47.9420    0.8420   -2.9720 C.3    90  ARG90       0.0347
     80  CG       -48.3370    0.9420   -1.5040 C.3    90  ARG90       0.0492
     81  CD       -47.8240    2.2310   -0.8950 C.3    90  ARG90       0.2205
     82  NE       -48.4530    3.4130   -1.4870 N.pl3  90  ARG90      -0.0865
     83  CZ       -49.6050    3.9380   -1.0820 C.cat  90  ARG90       0.5346
     84  NH1      -50.2950    3.3910   -0.0920 N.pl3  90  ARG90       0.1354
     85  NH2      -50.0770    5.0240   -1.6800 N.pl3  90  ARG90       0.1354
     86  N        -49.7270   -2.2550   -2.8340 N.am   91  PRO91      -0.2727
     87  CA       -51.0490   -2.6920   -2.4070 C.3    91  PRO91       0.1402
     88  C        -51.5520   -1.8220   -1.2600 C.2    91  PRO91       0.2269
     89  O        -50.7590   -1.3000   -0.4720 O.2    91  PRO91      -0.2865
     90  CB       -50.8150   -4.1370   -1.9310 C.3    91  PRO91       0.0296
     91  CG       -49.5080   -4.5200   -2.4240 C.3    91  PRO91       0.0237
     92  CD       -48.7090   -3.2840   -2.5850 C.3    91  PRO91       0.0939
     93  N        -51.9850   -2.8750    3.0730 N.3    94  VAL94      -0.1231
     94  CA       -50.8750   -3.8180    3.0100 C.3    94  VAL94       0.1692
     95  C        -50.2130   -3.9260    4.3820 C.2    94  VAL94       0.2592
     96  O        -50.1490   -2.9420    5.1280 O.2    94  VAL94      -0.2718
     97  CB       -49.8300   -3.3860    1.9380 C.3    94  VAL94       0.0266
     98  CG1      -49.0980   -2.1010    2.3510 C.3    94  VAL94       0.0020
     99  CG2      -48.8320   -4.4860    1.6630 C.3    94  VAL94       0.0020
    100  N        -49.7420   -5.1290    4.7040 N.am   95  GLN95      -0.1966
    101  CA       -48.9330   -5.3920    5.8960 C.3    95  GLN95       0.1733
    102  C        -47.9110   -6.4410    5.5100 C.2    95  GLN95       0.2616
    103  O        -48.2710   -7.4360    4.8880 O.2    95  GLN95      -0.2715
    104  CB       -49.7930   -5.9410    7.0460 C.3    95  GLN95       0.0408
    105  CG       -49.0640   -5.9810    8.3990 C.3    95  GLN95       0.0908
    106  CD       -49.9290   -6.4880    9.5550 C.2    95  GLN95       0.2608
    107  OE1      -50.9790   -7.0880    9.3490 O.2    95  GLN95      -0.2717
    108  NE2      -49.4690   -6.2600   10.7780 N.am   95  GLN95      -0.0878
    109  N        -46.6500   -6.2440    5.8810 N.am   96  ASP96      -0.1971
    110  CA       -45.6370   -7.2610    5.6030 C.3    96  ASP96       0.1709
    111  C        -45.8390   -8.4780    6.5220 C.2    96  ASP96       0.2293
    112  O        -46.4850   -8.3770    7.5800 O.2    96  ASP96      -0.2864
    113  CB       -44.1980   -6.6860    5.6140 C.3    96  ASP96       0.1436
    114  CG       -43.6690   -6.4020    6.9990 C.2    96  ASP96       0.3671
    115  OD1      -43.5190   -5.2160    7.3600 O.co2  96  ASP96      -0.2456
    116  OD2      -43.3950   -7.3680    7.7320 O.co2  96  ASP96      -0.2456
    117  N        -39.8210   -9.7710    3.4670 N.3   140  ASN140     -0.1240
    118  CA       -39.8580   -9.5060    2.0300 C.3   140  ASN140      0.1653
    119  C        -41.1420   -9.9540    1.3500 C.2   140  ASN140      0.2266
    120  O        -41.2020  -10.0800    0.1250 O.2   140  ASN140     -0.2867
    121  CB       -38.6220  -10.0770    1.3560 C.3   140  ASN140      0.1155
    122  CG       -37.3920   -9.2450    1.6290 C.2   140  ASN140      0.2627
    123  OD1      -37.4950   -8.0520    1.9280 O.2   140  ASN140     -0.2716
    124  ND2      -36.2300   -9.8640    1.5570 N.am  140  ASN140     -0.0877
    125  N        -45.2440   -8.9490    1.2010 N.3   142  LEU142     -0.1245
    126  CA       -46.3490   -8.0690    1.5330 C.3   142  LEU142      0.1561
    127  C        -47.6520   -8.8280    1.4030 C.2   142  LEU142      0.2260
    128  O        -47.8230   -9.6160    0.4690 O.2   142  LEU142     -0.2867
    129  CB       -46.3770   -6.8770    0.5880 C.3   142  LEU142      0.0270
    130  CG       -45.1140   -6.0190    0.6180 C.3   142  LEU142      0.0019
    131  CD1      -45.2360   -4.9220   -0.3980 C.3   142  LEU142      0.0001
    132  CD2      -44.8820   -5.4600    2.0200 C.3   142  LEU142      0.0001
    133  N        -41.1080   -8.7170   -2.3640 N.3   153  ILE153     -0.1231
    134  CA       -40.3420   -7.4760   -2.5050 C.3   153  ILE153      0.1692
    135  C        -38.8460   -7.6820   -2.3170 C.2   153  ILE153      0.2592
    136  O        -38.3870   -8.7230   -1.8440 O.2   153  ILE153     -0.2718
    137  CB       -40.8260   -6.3520   -1.5420 C.3   153  ILE153      0.0266
    138  CG1      -40.7870   -6.8150   -0.0870 C.3   153  ILE153      0.0019
    139  CG2      -42.2350   -5.9070   -1.9160 C.3   153  ILE153      0.0020
    140  CD1      -40.9430   -5.7300    0.9250 C.3   153  ILE153      0.0001
    141  N        -38.1110   -6.6610   -2.7360 N.am  154  ASP154     -0.1974
    142  CA       -36.6740   -6.5200   -2.5280 C.3   154  ASP154      0.1709
    143  C        -35.8100   -7.5480   -3.2590 C.2   154  ASP154      0.2293
    144  O        -35.3990   -8.5660   -2.6970 O.2   154  ASP154     -0.2864
    145  CB       -36.3200   -6.4560   -1.0390 C.3   154  ASP154      0.1436
    146  CG       -34.8960   -5.9550   -0.7990 C.2   154  ASP154      0.3671
    147  OD1      -34.2100   -5.5530   -1.7570 O.co2 154  ASP154     -0.2456
    148  OD2      -34.4550   -5.9480    0.3570 O.co2 154  ASP154     -0.2456
@<TRIPOS>BOND
     1    44    43    2
     2    43    42    1
     3    74    72   ar
     4    41    42    1
     5    72    71    1
     6    72    73   ar
     7    42    45    1
     8    71    70    1
     9    53    52    2
    10    52    51    1
    11    58    59    1
    12    45    46    1
    13    70    67    1
    14    59    60    1
    15    59    62    1
    16    66    60   am
    17    66    67    1
    18    46    47    1
    19    65    63    1
    20    60    61    2
    21    67    68    1
    22    51    50    1
    23    51    54    1
    24    63    62    1
    25    63    64    1
    26    47    49   ar
    27    47    48   ar
    28    56    54    1
    29    54    55    1
    30    68    75   am
    31    68    69    2
    32    30    29    2
    33    75    76    1
    34    35    34    2
    35    57    55    1
    36    27    28    1
    37    29    28    1
    38    39    40    1
    39    39    38    1
    40    32    33    1
    41    78    77    2
    42    34    33    1
    43    76    77    1
    44    76    79    1
    45    77    86   am
    46    36    33    1
    47    36    37    1
    48    28    31    1
    49   143   144    2
    50   143   142    1
    51    79    80    1
    52    86    92    1
    53    86    87    1
    54   141   142    1
    55   141   135   am
    56    38    37    1
    57    92    91    1
    58   142   145    1
    59   134   133    1
    60   134   135    1
    61   134   137    1
    62    91    90    1
    63    87    90    1
    64    87    88    1
    65   135   136    2
    66   139   137    1
    67   147   146   ar
    68    85    83    1
    69   137   138    1
    70    80    81    1
    71    82    83    2
    72    82    81    1
    73    88    89    2
    74    83    84    1
    75   145   146    1
    76    12    11    2
    77   146   148   ar
    78   131   130    1
    79   138   140    1
    80   120   119    2
    81    25    24    1
    82    11    10    1
    83   128   127    2
    84    26    24    1
    85   129   130    1
    86   129   126    1
    87   130   132    1
    88    10    13    1
    89    10     9    1
    90    13    14    1
    91    21    24    1
    92    21    22    1
    93    21    20    1
    94   125   126    1
    95   119   118    1
    96   121   122    1
    97   121   118    1
    98   127   126    1
    99    22    23    2
   100   124   122   am
   101   122   123    2
   102    99    97    1
   103     7     6    1
   104    16    14   ar
   105    16    18   ar
   106    97    98    1
   107    97    94    1
   108    14    15   ar
   109   118   117    1
   110    18    19   ar
   111    94    93    1
   112    94    95    1
   113     6     5    1
   114     6     8    1
   115    15    17   ar
   116     5     2    1
   117    19    17   ar
   118    95   100   am
   119    95    96    2
   120   100   101    1
   121     1     2    1
   122   103   102    2
   123     2     3    1
   124   102   109   am
   125   102   101    1
   126   110   113    1
   127   110   109    1
   128   110   111    1
   129   113   114    1
   130   101   104    1
   131     3     4    2
   132   111   112    2
   133   114   115   ar
   134   114   116   ar
   135   104   105    1
   136   105   106    1
   137   107   106    2
   138   106   108   am
