@<TRIPOS>MOLECULE
tmp/2bzzA00.pdb
 224 216 0 0 0
SMALL
GASTEIGER

@<TRIPOS>ATOM
      1  N         19.1260   14.2570   12.4140 N.3     1  MET1       -0.1245
      2  CA        19.1810   13.4850   13.6760 C.3     1  MET1        0.1570
      3  C         18.7410   14.4490   14.7780 C.2     1  MET1        0.2261
      4  O         18.7160   15.6530   14.5560 O.2     1  MET1       -0.2867
      5  CB        20.5170   12.8500   14.0040 C.3     1  MET1        0.0387
      6  CG        21.5680   13.9720   14.2540 C.3     1  MET1        0.0595
      7  SD        22.1950   14.3100   12.5570 S.3     1  MET1       -0.1393
      8  CE        22.7890   15.9220   12.6100 C.3     1  MET1        0.0692
      9  N         10.9260   13.5560   20.4580 N.3     8  TRP8       -0.1241
     10  CA        10.6090   13.4970   19.0040 C.3     8  TRP8        0.1605
     11  C          9.5810   14.5730   18.6390 C.2     8  TRP8        0.2264
     12  O          9.6730   15.2170   17.5550 O.2     8  TRP8       -0.2867
     13  CB        10.1390   12.1210   18.5620 C.3     8  TRP8        0.0550
     14  CG        11.1870   11.0590   18.6450 C.ar    8  TRP8        0.0003
     15  CD1       11.2430   10.0050   19.5500 C.ar    8  TRP8        0.0946
     16  CD2       12.2970   10.9460   17.7770 C.ar    8  TRP8        0.0152
     17  NE1       12.3320    9.2590   19.2860 N.ar    8  TRP8       -0.2442
     18  CE2       13.0120    9.7880   18.2140 C.ar    8  TRP8        0.0810
     19  CE3       12.7380   11.7000   16.6900 C.ar    8  TRP8        0.0012
     20  CZ2       14.1730    9.3890   17.5700 C.ar    8  TRP8        0.0191
     21  CZ3       13.9070   11.2780   16.0670 C.ar    8  TRP8        0.0001
     22  CH2       14.5880   10.1480   16.5160 C.ar    8  TRP8        0.0015
     23  N         11.1760   18.0060   18.5150 N.3    11  TRP11      -0.1227
     24  CA        12.0270   18.1020   17.3340 C.3    11  TRP11       0.1737
     25  C         11.1850   18.2730   16.0580 C.2    11  TRP11       0.2595
     26  O         11.5510   19.0540   15.1700 O.2    11  TRP11      -0.2718
     27  CB        12.9510   16.8900   17.2880 C.3    11  TRP11       0.0564
     28  CG        14.0220   16.9060   16.2180 C.ar   11  TRP11       0.0003
     29  CD1       14.2680   15.9150   15.3010 C.ar   11  TRP11       0.0946
     30  CD2       15.0000   17.9610   16.0150 C.ar   11  TRP11       0.0152
     31  NE1       15.3430   16.2600   14.5240 N.ar   11  TRP11      -0.2442
     32  CE2       15.8090   17.5270   14.9190 C.ar   11  TRP11       0.0810
     33  CE3       15.2740   19.1990   16.6140 C.ar   11  TRP11       0.0012
     34  CZ2       16.8550   18.2870   14.4060 C.ar   11  TRP11       0.0191
     35  CZ3       16.3360   19.9520   16.0850 C.ar   11  TRP11       0.0001
     36  CH2       17.1170   19.5010   14.9950 C.ar   11  TRP11       0.0015
     37  N         10.0570   17.5490   15.9530 N.am   12  PHE12      -0.1976
     38  CA         9.1330   17.7350   14.8270 C.3    12  PHE12       0.1639
     39  C          8.6860   19.2180   14.7690 C.2    12  PHE12       0.2290
     40  O          8.6250   19.8330   13.6830 O.2    12  PHE12      -0.2864
     41  CB         7.9300   16.7950   14.9950 C.3    12  PHE12       0.0560
     42  CG         6.9070   16.9670   13.8920 C.ar   12  PHE12      -0.0200
     43  CD1        6.9360   16.2050   12.7260 C.ar   12  PHE12      -0.0042
     44  CD2        5.8760   17.9270   14.0160 C.ar   12  PHE12      -0.0042
     45  CE1        5.9900   16.4210   11.7140 C.ar   12  PHE12      -0.0003
     46  CE2        4.9700   18.1660   13.0180 C.ar   12  PHE12      -0.0003
     47  CZ         5.0220   17.4030   11.8400 C.ar   12  PHE12      -0.0000
     48  N         11.5890   21.4440   13.5400 N.3    15  GLN15      -0.1231
     49  CA        11.9910   21.2840   12.1520 C.3    15  GLN15       0.1698
     50  C         10.8580   21.6460   11.1690 C.2    15  GLN15       0.2592
     51  O         11.1600   22.1090   10.0590 O.2    15  GLN15      -0.2718
     52  CB        12.4270   19.8650   11.8320 C.3    15  GLN15       0.0381
     53  CG        13.6920   19.4210   12.5780 C.3    15  GLN15       0.0905
     54  CD        14.3370   18.2440   11.8560 C.2    15  GLN15       0.2608
     55  OE1       15.3580   18.4360   11.1580 O.2    15  GLN15      -0.2717
     56  NE2       13.6650   17.1170   11.9380 N.am   15  GLN15      -0.0878
     57  N          9.5850   21.4040   11.5520 N.am   16  HIS16      -0.1976
     58  CA         8.5170   21.4270   10.5500 C.3    16  HIS16       0.1656
     59  C          7.3800   22.3800   10.8190 C.2    16  HIS16       0.2291
     60  O          6.4960   22.5070    9.9630 O.2    16  HIS16      -0.2864
     61  CB         7.9490   19.9950   10.2990 C.3    16  HIS16       0.0771
     62  CG         9.0080   19.0300    9.8930 C.ar   16  HIS16       0.0820
     63  ND1        9.7710   19.1560    8.7380 N.ar   16  HIS16      -0.2267
     64  CD2        9.4490   17.8920   10.5070 C.ar   16  HIS16       0.1154
     65  CE1       10.6190   18.1240    8.6550 C.ar   16  HIS16       0.1986
     66  NE2       10.4520   17.3400    9.7280 N.ar   16  HIS16      -0.2212
     67  N         21.6960   20.4580   14.5450 N.3    35  GLN35      -0.1245
     68  CA        22.1860   19.1970   13.9510 C.3    35  GLN35       0.1566
     69  C         23.6860   19.1890   13.6830 C.2    35  GLN35       0.2260
     70  O         24.2520   18.1520   13.3320 O.2    35  GLN35      -0.2867
     71  CB        21.5060   18.9410   12.5730 C.3    35  GLN35       0.0367
     72  CG        20.0510   18.5750   12.7060 C.3    35  GLN35       0.0905
     73  CD        19.5370   17.6650   11.5990 C.2    35  GLN35       0.2608
     74  OE1       20.2540   16.8100   11.1270 O.2    35  GLN35      -0.2717
     75  NE2       18.2730   17.8260   11.1950 N.am   35  GLN35      -0.0878
     76  N         25.2070   20.4340   11.0800 N.3    37  ARG37      -0.1245
     77  CA        25.4710   20.2150    9.6690 C.3    37  ARG37       0.1563
     78  C         24.3970   21.0330    8.9060 C.2    37  ARG37       0.2260
     79  O         23.4170   21.4570    9.5030 O.2    37  ARG37      -0.2867
     80  CB        25.3670   18.7560    9.2700 C.3    37  ARG37       0.0307
     81  CG        23.9540   18.2430    9.4520 C.3    37  ARG37       0.0489
     82  CD        23.7860   16.7470    9.2460 C.3    37  ARG37       0.2205
     83  NE        22.3620   16.4360    9.2220 N.pl3  37  ARG37      -0.0865
     84  CZ        21.6160   16.0920    8.2000 C.cat  37  ARG37       0.5346
     85  NH1       20.3400   15.8640    8.4310 N.pl3  37  ARG37       0.1354
     86  NH2       22.1110   15.9810    6.9590 N.pl3  37  ARG37       0.1354
     87  N         21.4460   20.7230    6.7080 N.3    39  LYS39      -0.1231
     88  CA        20.4860   19.7550    6.1780 C.3    39  LYS39       0.1693
     89  C         20.1860   20.0360    4.7190 C.2    39  LYS39       0.2592
     90  O         19.9590   21.1810    4.2940 O.2    39  LYS39      -0.2718
     91  CB        19.2620   19.8480    7.0820 C.3    39  LYS39       0.0285
     92  CG        18.2240   18.7600    6.8600 C.3    39  LYS39       0.0035
     93  CD        17.0520   18.8970    7.8280 C.3    39  LYS39       0.0206
     94  CE        16.0050   17.8280    7.5500 C.3    39  LYS39       0.1093
     95  NZ        14.8200   17.9530    8.4550 N.3    39  LYS39      -0.1314
     96  N         20.1700   18.9990    3.8920 N.am   40  ASN40      -0.1960
     97  CA        20.0690   19.2280    2.4310 C.3    40  ASN40       0.1819
     98  C         18.7080   19.7790    1.9840 C.2    40  ASN40       0.2621
     99  O         18.6270   20.6020    1.0610 O.2    40  ASN40      -0.2715
    100  CB        20.3810   17.9230    1.6780 C.3    40  ASN40       0.1195
    101  CG        20.5280   18.1270    0.2040 C.2    40  ASN40       0.2630
    102  OD1       19.7610   17.4960   -0.5460 O.2    40  ASN40      -0.2716
    103  ND2       21.4270   18.9790   -0.2740 N.am   40  ASN40      -0.0877
    104  N         17.6180   19.3260    2.6140 N.am   41  GLN41      -0.1963
    105  CA        16.3120   19.8970    2.3210 C.3    41  GLN41       0.1733
    106  C         15.4030   19.7270    3.5420 C.2    41  GLN41       0.2616
    107  O         15.6370   18.8700    4.4150 O.2    41  GLN41      -0.2715
    108  CB        15.6580   19.3310    1.0920 C.3    41  GLN41       0.0408
    109  CG        15.3380   17.8810    1.1550 C.3    41  GLN41       0.0908
    110  CD        14.9480   17.3450   -0.2300 C.2    41  GLN41       0.2608
    111  OE1       13.9340   17.8100   -0.7990 O.2    41  GLN41      -0.2717
    112  NE2       15.7230   16.4040   -0.7370 N.am   41  GLN41      -0.0878
    113  N         14.3320   20.5630    3.5860 N.am   42  ASN42      -0.1958
    114  CA        13.4410   20.5400    4.7420 C.3    42  ASN42       0.1819
    115  C         12.1590   21.2640    4.4040 C.2    42  ASN42       0.2621
    116  O         12.2040   22.3990    3.9000 O.2    42  ASN42      -0.2715
    117  CB        14.1270   21.2190    5.9590 C.3    42  ASN42       0.1195
    118  CG        13.2550   21.0960    7.1920 C.2    42  ASN42       0.2630
    119  OD1       13.1130   20.0280    7.8170 O.2    42  ASN42      -0.2716
    120  ND2       12.6460   22.2270    7.6300 N.am   42  ASN42      -0.0877
    121  N         11.0040   20.6690    4.8470 N.am   43  THR43      -0.1951
    122  CA         9.7170   21.3370    4.7110 C.3    43  THR43       0.1897
    123  C          9.2450   21.9630    6.0170 C.2    43  THR43       0.2313
    124  O          9.2100   21.2900    7.0730 O.2    43  THR43      -0.2863
    125  CB         8.6390   20.2870    4.2880 C.3    43  THR43       0.1794
    126  OG1        8.9930   19.7180    3.0330 O.3    43  THR43      -0.2208
    127  CG2        7.2630   21.0030    4.2170 C.3    43  THR43       0.0378
    128  N          2.8090    4.1430    5.9430 N.3    63  CYS63      -0.1235
    129  CA         3.6810    5.2650    5.6140 C.3    63  CYS63       0.1677
    130  C          4.3030    5.0490    4.2300 C.2    63  CYS63       0.2270
    131  O          5.0070    4.0600    4.0420 O.2    63  CYS63      -0.2867
    132  CB         4.8250    5.3280    6.6460 C.3    63  CYS63       0.0956
    133  SG         4.2160    5.6400    8.3420 S.3    63  CYS63      -0.0801
    134  N          7.9790    4.0580    4.3200 N.3    66  ASN66      -0.1240
    135  CA         8.3440    2.7400    4.8970 C.3    66  ASN66       0.1653
    136  C          7.1510    1.8230    5.0100 C.2    66  ASN66       0.2266
    137  O          6.3230    2.0250    5.9500 O.2    66  ASN66      -0.2867
    138  CB         8.9280    2.8390    6.2950 C.3    66  ASN66       0.1155
    139  CG         9.5840    1.6000    6.8660 C.2    66  ASN66       0.2627
    140  OD1        9.1740    0.4500    6.7480 O.2    66  ASN66      -0.2716
    141  ND2       10.6850    1.8160    7.5850 N.am   66  ASN66      -0.0877
    142  N          5.4650    0.3610    8.3080 N.3    69  ARG69      -0.1245
    143  CA         4.9120    1.1760    9.4020 C.3    69  ARG69       0.1563
    144  C          3.4970    1.5780    9.0810 C.2    69  ARG69       0.2260
    145  O          3.1470    1.9690    7.9610 O.2    69  ARG69      -0.2867
    146  CB         5.7770    2.4340    9.5850 C.3    69  ARG69       0.0307
    147  CG         7.2260    2.1440    9.9780 C.3    69  ARG69       0.0489
    148  CD         7.4440    1.3170   11.2240 C.3    69  ARG69       0.2205
    149  NE         6.5690    1.6070   12.3480 N.pl3  69  ARG69      -0.0865
    150  CZ         6.9150    2.4320   13.3420 C.cat  69  ARG69       0.5346
    151  NH1        6.0880    2.6710   14.3590 N.pl3  69  ARG69       0.1354
    152  NH2        8.0980    3.0350   13.3340 N.pl3  69  ARG69       0.1354
    153  N          1.7210    3.7340   11.4000 N.3    71  ASN71      -0.1240
    154  CA         1.4160    4.8450   12.3180 C.3    71  ASN71       0.1653
    155  C          1.3420    6.1920   11.5460 C.2    71  ASN71       0.2266
    156  O          1.4910    7.2530   12.1880 O.2    71  ASN71      -0.2867
    157  CB         2.3930    4.9390   13.4780 C.3    71  ASN71       0.1155
    158  CG         3.8130    5.2020   13.0370 C.2    71  ASN71       0.2627
    159  OD1        4.2420    4.9190   11.9050 O.2    71  ASN71      -0.2716
    160  ND2        4.6010    5.8390   13.9480 N.am   71  ASN71      -0.0877
    161  N          9.1860   24.7720    1.1760 N.3    83  HIS83      -0.1241
    162  CA        10.2090   23.7510    1.1150 C.3    83  HIS83       0.1621
    163  C         11.5520   24.4550    0.8680 C.2    83  HIS83       0.2264
    164  O         11.6680   25.2850   -0.0630 O.2    83  HIS83      -0.2867
    165  CB         9.9120   22.7500    0.0110 C.3    83  HIS83       0.0745
    166  CG        10.7810   21.5430    0.1210 C.ar   83  HIS83       0.0817
    167  ND1       10.6450   20.6200    1.1750 N.ar   83  HIS83      -0.2268
    168  CD2       11.7660   21.0890   -0.6900 C.ar   83  HIS83       0.1154
    169  CE1       11.5530   19.6800    0.9810 C.ar   83  HIS83       0.1986
    170  NE2       12.2330   19.9400   -0.1130 N.ar   83  HIS83      -0.2212
    171  N          3.6920   10.6780   10.6810 N.3   111  ALA111     -0.1245
    172  CA         3.7040    9.5490   11.6220 C.3   111  ALA111      0.1562
    173  C          3.5180   10.1490   13.0220 C.2   111  ALA111      0.2260
    174  O          4.1540   11.1620   13.3600 O.2   111  ALA111     -0.2867
    175  CB         4.9940    8.7440   11.5900 C.3   111  ALA111      0.0290
    176  N          3.0120    9.0700   17.3800 N.3   113  ASP113     -0.1239
    177  CA         3.2750    8.0810   18.4230 C.3   113  ASP113      0.1674
    178  C          2.7540    8.6290   19.7470 C.2   113  ASP113      0.2266
    179  O          2.4250    9.7800   19.9130 O.2   113  ASP113     -0.2867
    180  CB         4.7710    7.7960   18.5440 C.3   113  ASP113      0.1410
    181  CG         5.3580    6.8060   17.5310 C.2   113  ASP113      0.3668
    182  OD1        4.6180    5.8790   17.0940 O.co2 113  ASP113     -0.2456
    183  OD2        6.5410    6.9250   17.1750 O.co2 113  ASP113     -0.2456
    184  N          5.6630   12.8870   15.1130 N.3   129  VAL129     -0.1231
    185  CA         7.0900   12.5970   15.3110 C.3   129  VAL129      0.1692
    186  C          7.9010   12.5900   14.0310 C.2   129  VAL129      0.2592
    187  O          9.1580   12.5740   14.0970 O.2   129  VAL129     -0.2718
    188  CB         7.3040   11.2910   16.1260 C.3   129  VAL129      0.0266
    189  CG1        6.7030   11.4760   17.5170 C.3   129  VAL129      0.0020
    190  CG2        6.7420   10.0520   15.4070 C.3   129  VAL129      0.0020
    191  N          7.2540   12.5250   12.8490 N.am  130  HIS130     -0.1962
    192  CA         7.9800   12.3900   11.5800 C.3   130  HIS130      0.1787
    193  C          7.0810   12.9080   10.4610 C.2   130  HIS130      0.2620
    194  O          5.8890   12.6140   10.4480 O.2   130  HIS130     -0.2715
    195  CB         8.3540   10.9150   11.3560 C.3   130  HIS130      0.0785
    196  CG         8.4710   10.3500   10.0100 C.ar  130  HIS130      0.0821
    197  ND1        9.5800   10.5610    9.2400 N.ar  130  HIS130     -0.2267
    198  CD2        7.6840    9.5250    9.2750 C.ar  130  HIS130      0.1154
    199  CE1        9.4940    9.9460    8.0750 C.ar  130  HIS130      0.1986
    200  NE2        8.3020    9.2900    8.0950 N.ar  130  HIS130     -0.2212
    201  N          7.6370   13.6700    9.5150 N.am  131  LEU131     -0.1963
    202  CA         6.9250   14.1270    8.3350 C.3   131  LEU131      0.1728
    203  C          7.2590   13.1320    7.2240 C.2   131  LEU131      0.2616
    204  O          8.3970   13.1110    6.7010 O.2   131  LEU131     -0.2715
    205  CB         7.3800   15.5320    7.9380 C.3   131  LEU131      0.0311
    206  CG         6.6640   16.1100    6.7090 C.3   131  LEU131      0.0022
    207  CD1        5.1500   16.1180    6.8510 C.3   131  LEU131      0.0001
    208  CD2        7.1530   17.5490    6.4400 C.3   131  LEU131      0.0001
    209  N          6.2980   12.2630    6.8690 N.am  132  ASP132     -0.1971
    210  CA         6.5900   11.1530    5.9390 C.3   132  ASP132      0.1709
    211  C          6.5500   11.6080    4.4870 C.2   132  ASP132      0.2293
    212  O          7.3420   11.1200    3.6860 O.2   132  ASP132     -0.2864
    213  CB         5.6190    9.9830    6.1910 C.3   132  ASP132      0.1436
    214  CG         6.1830    8.6830    5.5840 C.2   132  ASP132      0.3671
    215  OD1        5.7610    8.2510    4.5190 O.co2 132  ASP132     -0.2456
    216  OD2        7.0500    8.0790    6.2540 O.co2 132  ASP132     -0.2456
    217  N          4.9720   14.8570    1.5340 N.3   134  ILE134     -0.1245
    218  CA         4.1060   15.9480    1.0610 C.3   134  ILE134      0.1561
    219  C          3.6360   15.5870   -0.3560 C.2   134  ILE134      0.2260
    220  O          4.4260   14.9750   -1.1080 O.2   134  ILE134     -0.2867
    221  CB         4.7700   17.3440    1.1420 C.3   134  ILE134      0.0252
    222  CG1        6.0500   17.4970    0.3160 C.3   134  ILE134      0.0019
    223  CG2        4.9790   17.6980    2.6510 C.3   134  ILE134      0.0019
    224  CD1        6.7170   18.8790    0.3410 C.3   134  ILE134      0.0001
@<TRIPOS>BOND
     1   220   219    2
     2   111   110    2
     3   112   110   am
     4   168   170   ar
     5   168   166   ar
     6   102   101    2
     7   219   218    1
     8   103   101   am
     9   110   109    1
    10   170   169   ar
    11   164   163    2
    12   165   166    1
    13   165   162    1
    14   166   167   ar
    15   101   100    1
    16   222   224    1
    17   222   221    1
    18   163   162    1
    19   169   167   ar
    20   218   221    1
    21   218   217    1
    22    99    98    2
    23   108   109    1
    24   108   105    1
    25   162   161    1
    26   221   223    1
    27   100    97    1
    28    98    97    1
    29    98   104   am
    30   105   104    1
    31   105   106    1
    32    97    96    1
    33   126   125    1
    34   106   113   am
    35   106   107    2
    36   113   114    1
    37   212   211    2
    38    96    89   am
    39   116   115    2
    40   131   130    2
    41   127   125    1
    42   130   129    1
    43   125   122    1
    44    90    89    2
    45   134   135    1
    46   115   114    1
    47   115   121   am
    48   211   210    1
    49   215   214   ar
    50   122   121    1
    51   122   123    1
    52    89    88    1
    53   114   117    1
    54   135   136    1
    55   135   138    1
    56   136   137    2
    57   214   213    1
    58   214   216   ar
    59   129   128    1
    60   129   132    1
    61   210   213    1
    62   210   209    1
    63   117   118    1
    64   123   124    2
    65    88    87    1
    66    88    91    1
    67   138   139    1
    68   208   206    1
    69   132   133    1
    70   204   203    2
    71   206   207    1
    72   206   205    1
    73   140   139    2
    74    92    91    1
    75    92    93    1
    76   139   141   am
    77   209   203   am
    78    86    84    1
    79   118   120   am
    80   118   119    2
    81   203   202    1
    82    94    93    1
    83    94    95    1
    84   205   202    1
    85   145   144    2
    86   199   200   ar
    87   199   197   ar
    88   200   198   ar
    89    84    85    1
    90    84    83    2
    91   142   143    1
    92   202   201    1
    93    65    63   ar
    94    65    66   ar
    95    63    62   ar
    96    78    79    2
    97    78    77    1
    98   144   143    1
    99    83    82    1
   100   197   196   ar
   101    82    81    1
   102    80    81    1
   103    80    77    1
   104   198   196   ar
   105   143   146    1
   106   201   193   am
   107   146   147    1
   108    77    76    1
   109    66    64   ar
   110    62    61    1
   111    62    64   ar
   112    60    59    2
   113   147   148    1
   114   196   195    1
   115    51    50    2
   116    61    58    1
   117   194   193    2
   118   193   192    1
   119    58    59    1
   120    58    57    1
   121   171   172    1
   122    74    73    2
   123    55    54    2
   124    50    57   am
   125    50    49    1
   126    75    73   am
   127   148   149    1
   128   195   192    1
   129   153   154    1
   130   155   156    2
   131   155   154    1
   132   192   191    1
   133   175   172    1
   134    73    72    1
   135   172   173    1
   136    45    47   ar
   137    45    43   ar
   138    52    49    1
   139    52    53    1
   140    47    46   ar
   141    54    56   am
   142    54    53    1
   143   159   158    2
   144    49    48    1
   145   154   157    1
   146   149   150    2
   147     1     2    1
   148     7     8    1
   149     7     6    1
   150    71    72    1
   151    71    68    1
   152    43    42   ar
   153   191   186   am
   154    46    44   ar
   155   173   174    2
   156   158   157    1
   157   158   160   am
   158    70    69    2
   159   152   150    1
   160   150   151    1
   161     2     5    1
   162     2     3    1
   163    69    68    1
   164    40    39    2
   165    42    44   ar
   166    42    41    1
   167    68    67    1
   168     5     6    1
   169   186   187    2
   170   186   185    1
   171    34    32   ar
   172    34    36   ar
   173    31    32   ar
   174    31    29   ar
   175     4     3    2
   176    39    38    1
   177    38    41    1
   178    38    37    1
   179    32    30   ar
   180    36    35   ar
   181   184   185    1
   182    26    25    2
   183    29    28   ar
   184   185   188    1
   185   190   188    1
   186    37    25   am
   187    30    28   ar
   188    30    33   ar
   189    25    24    1
   190    21    22   ar
   191    21    19   ar
   192    35    33   ar
   193   188   189    1
   194    28    27    1
   195    22    20   ar
   196    19    16   ar
   197   182   181   ar
   198   183   181   ar
   199    27    24    1
   200    24    23    1
   201   176   177    1
   202   181   180    1
   203    12    11    2
   204    20    18   ar
   205    16    18   ar
   206    16    14   ar
   207    18    17   ar
   208   177   180    1
   209   177   178    1
   210    13    14    1
   211    13    10    1
   212    11    10    1
   213    14    15   ar
   214    10     9    1
   215    17    15   ar
   216   178   179    2
