@<TRIPOS>MOLECULE
tmp/2c01A00.pdb
 114 108 0 0 0
SMALL
GASTEIGER

@<TRIPOS>ATOM
      1  N         10.8310   13.5270   20.3350 N.3     8  TRP8       -0.1241
      2  CA        10.5690   13.4580   18.9040 C.3     8  TRP8        0.1605
      3  C          9.5320   14.5030   18.4980 C.2     8  TRP8        0.2264
      4  O          9.6540   15.1250   17.4420 O.2     8  TRP8       -0.2867
      5  CB        10.0920   12.0600   18.5110 C.3     8  TRP8        0.0550
      6  CG        11.1780   11.0320   18.5880 C.ar    8  TRP8        0.0003
      7  CD1       11.2840   10.0160   19.4930 C.ar    8  TRP8        0.0946
      8  CD2       12.3320   10.9420   17.7440 C.ar    8  TRP8        0.0152
      9  NE1       12.4340    9.2970   19.2650 N.ar    8  TRP8       -0.2442
     10  CE2       13.0960    9.8440   18.1980 C.ar    8  TRP8        0.0810
     11  CE3       12.7950   11.6830   16.6480 C.ar    8  TRP8        0.0012
     12  CZ2       14.3010    9.4680   17.5930 C.ar    8  TRP8        0.0191
     13  CZ3       13.9950   11.3090   16.0460 C.ar    8  TRP8        0.0001
     14  CH2       14.7320   10.2110   16.5230 C.ar    8  TRP8        0.0015
     15  N         11.0720   17.9490   18.3820 N.3    11  TRP11      -0.1241
     16  CA        11.9580   18.0630   17.2350 C.3    11  TRP11       0.1605
     17  C         11.1110   18.2290   15.9690 C.2    11  TRP11       0.2264
     18  O         11.4620   19.0000   15.0810 O.2    11  TRP11      -0.2867
     19  CB        12.8590   16.8280   17.1360 C.3    11  TRP11       0.0550
     20  CG        13.9130   16.9240   16.0680 C.ar   11  TRP11       0.0003
     21  CD1       14.1390   16.0280   15.0640 C.ar   11  TRP11       0.0946
     22  CD2       14.8770   17.9750   15.8910 C.ar   11  TRP11       0.0152
     23  NE1       15.1790   16.4510   14.2720 N.ar   11  TRP11      -0.2442
     24  CE2       15.6500   17.6430   14.7550 C.ar   11  TRP11       0.0810
     25  CE3       15.1620   19.1630   16.5790 C.ar   11  TRP11       0.0012
     26  CZ2       16.6890   18.4560   14.2890 C.ar   11  TRP11       0.0191
     27  CZ3       16.2000   19.9750   16.1130 C.ar   11  TRP11       0.0001
     28  CH2       16.9480   19.6130   14.9780 C.ar   11  TRP11       0.0015
     29  N         11.5020   21.3080   13.4460 N.3    15  GLN15      -0.1245
     30  CA        11.8470   21.1420   12.0410 C.3    15  GLN15       0.1566
     31  C         10.7460   21.4490   11.0440 C.2    15  GLN15       0.2260
     32  O         11.0220   21.9220    9.9400 O.2    15  GLN15      -0.2867
     33  CB        12.2910   19.7100   11.7540 C.3    15  GLN15       0.0367
     34  CG        13.5610   19.2510   12.4210 C.3    15  GLN15       0.0905
     35  CD        14.1880   18.1100   11.6480 C.2    15  GLN15       0.2608
     36  OE1       15.2370   18.2720   11.0300 O.2    15  GLN15      -0.2717
     37  NE2       13.5290   16.9570   11.6530 N.am   15  GLN15      -0.0878
     38  N          2.9020    4.0080    5.9190 N.3    63  CYS63      -0.1235
     39  CA         3.7910    5.1270    5.6500 C.3    63  CYS63       0.1677
     40  C          4.4650    4.9400    4.2940 C.2    63  CYS63       0.2270
     41  O          5.1420    3.9390    4.0670 O.2    63  CYS63      -0.2867
     42  CB         4.8640    5.2100    6.7270 C.3    63  CYS63       0.0956
     43  SG         4.2640    5.5710    8.4040 S.3    63  CYS63      -0.0801
     44  N          7.1080    6.0050    3.0870 N.3    65  SER65      -0.1202
     45  CA         8.5490    5.7860    3.1890 C.3    65  SER65       0.2020
     46  C          8.9010    4.3930    3.7040 C.2    65  SER65       0.2618
     47  O          9.9480    3.8440    3.3550 O.2    65  SER65      -0.2717
     48  CB         9.1870    6.8340    4.1040 C.3    65  SER65       0.2103
     49  OG         8.9020    6.5650    5.4640 O.3    65  SER65      -0.2182
     50  N          8.0350    3.8220    4.5350 N.am   66  ASN66      -0.1974
     51  CA         8.2920    2.4950    5.0840 C.3    66  ASN66       0.1688
     52  C          7.0550    1.6030    5.0220 C.2    66  ASN66       0.2292
     53  O          6.0930    1.8010    5.7640 O.2    66  ASN66      -0.2864
     54  CB         8.7680    2.6100    6.5340 C.3    66  ASN66       0.1181
     55  CG         9.4310    1.3410    7.0290 C.2    66  ASN66       0.2629
     56  OD1        8.9100    0.2430    6.8420 O.2    66  ASN66      -0.2716
     57  ND2       10.5840    1.4860    7.6710 N.am   66  ASN66      -0.0877
     58  N          5.5660    0.2420    8.3700 N.3    69  ARG69      -0.1245
     59  CA         4.9900    1.0900    9.4100 C.3    69  ARG69       0.1563
     60  C          3.5470    1.4670    9.1030 C.2    69  ARG69       0.2260
     61  O          3.2030    1.8150    7.9710 O.2    69  ARG69      -0.2867
     62  CB         5.8290    2.3560    9.6000 C.3    69  ARG69       0.0307
     63  CG         7.2850    2.0830    9.9570 C.3    69  ARG69       0.0489
     64  CD         7.4120    1.0860   11.1030 C.3    69  ARG69       0.2205
     65  NE         6.7950    1.5580   12.3390 N.pl3  69  ARG69      -0.0865
     66  CZ         7.2250    2.6040   13.0390 C.cat  69  ARG69       0.5346
     67  NH1        6.6000    2.9590   14.1530 N.pl3  69  ARG69       0.1354
     68  NH2        8.2800    3.2940   12.6260 N.pl3  69  ARG69       0.1354
     69  N          1.7900    3.6670   11.3570 N.3    71  ASN71      -0.1240
     70  CA         1.4580    4.7760   12.2500 C.3    71  ASN71       0.1653
     71  C          1.3690    6.1200   11.5210 C.2    71  ASN71       0.2266
     72  O          1.5520    7.1820   12.1240 O.2    71  ASN71      -0.2867
     73  CB         2.4710    4.8500   13.4010 C.3    71  ASN71       0.1155
     74  CG         3.8610    5.2320   12.9400 C.2    71  ASN71       0.2627
     75  OD1        4.2810    4.8880   11.8350 O.2    71  ASN71      -0.2716
     76  ND2        4.5950    5.9340   13.8000 N.am   71  ASN71      -0.0877
     77  N          3.6880   10.6690   10.6490 N.3   111  ALA111     -0.1245
     78  CA         3.7370    9.4960   11.5070 C.3   111  ALA111      0.1562
     79  C          3.5470   10.0380   12.9160 C.2   111  ALA111      0.2260
     80  O          4.1470   11.0530   13.2820 O.2   111  ALA111     -0.2867
     81  CB         5.0820    8.8050   11.3920 C.3   111  ALA111      0.0290
     82  N          3.0290    8.9780   17.2640 N.3   113  ASP113     -0.1239
     83  CA         3.2460    7.9790   18.3050 C.3   113  ASP113      0.1674
     84  C          2.7520    8.5310   19.6290 C.2   113  ASP113      0.2266
     85  O          2.3870    9.7000   19.7320 O.2   113  ASP113     -0.2867
     86  CB         4.7350    7.6500   18.4650 C.3   113  ASP113      0.1410
     87  CG         5.2810    6.7920   17.3430 C.2   113  ASP113      0.3668
     88  OD1        4.5730    5.8660   16.8950 O.co2 113  ASP113     -0.2456
     89  OD2        6.4340    7.0320   16.9260 O.co2 113  ASP113     -0.2456
     90  N          5.6220   12.7380   15.0300 N.3   129  VAL129     -0.1231
     91  CA         7.0430   12.5150   15.2590 C.3   129  VAL129      0.1692
     92  C          7.8840   12.4860   13.9870 C.2   129  VAL129      0.2592
     93  O          9.1040   12.5850   14.0530 O.2   129  VAL129     -0.2718
     94  CB         7.2790   11.1920   16.0350 C.3   129  VAL129      0.0266
     95  CG1        6.6350   11.2740   17.4140 C.3   129  VAL129      0.0020
     96  CG2        6.7150   10.0160   15.2540 C.3   129  VAL129      0.0020
     97  N          7.2540   12.5250   12.8490 N.am  130  HIS130     -0.1976
     98  CA         7.9800   12.3900   11.5800 C.3   130  HIS130      0.1656
     99  C          7.0810   12.9080   10.4610 C.2   130  HIS130      0.2291
    100  O          5.8890   12.6140   10.4480 O.2   130  HIS130     -0.2864
    101  CB         8.4120   10.8610   11.2050 C.3   130  HIS130      0.0771
    102  CG         9.4540   10.3930   12.1700 C.ar  130  HIS130      0.0820
    103  ND1        9.2980    9.2660   12.9470 N.ar  130  HIS130     -0.2267
    104  CD2       10.6650   10.9050   12.4920 C.ar  130  HIS130      0.1154
    105  CE1       10.3670    9.1030   13.7060 C.ar  130  HIS130      0.1986
    106  NE2       11.2130   10.0840   13.4490 N.ar  130  HIS130     -0.2212
    107  N          6.3790   12.1000    6.9680 N.3   132  ASP132     -0.1239
    108  CA         6.6810   11.0540    6.0030 C.3   132  ASP132      0.1674
    109  C          6.6800   11.4880    4.5470 C.2   132  ASP132      0.2266
    110  O          7.5410   11.0650    3.7750 O.2   132  ASP132     -0.2867
    111  CB         5.7250    9.8760    6.2030 C.3   132  ASP132      0.1410
    112  CG         6.2800    8.5800    5.6500 C.2   132  ASP132      0.3668
    113  OD1        6.0000    8.2560    4.4790 O.co2 132  ASP132     -0.2456
    114  OD2        7.0120    7.8910    6.3910 O.co2 132  ASP132     -0.2456
@<TRIPOS>BOND
     1    44    45    1
     2    45    46    1
     3    45    48    1
     4    47    46    2
     5    46    50   am
     6   110   109    2
     7    41    40    2
     8    48    49    1
     9    40    39    1
    10   113   112   ar
    11    50    51    1
    12   109   108    1
    13    52    51    1
    14    52    53    2
    15    51    54    1
    16    39    38    1
    17    39    42    1
    18   112   111    1
    19   112   114   ar
    20   108   111    1
    21   108   107    1
    22    54    55    1
    23    42    43    1
    24    56    55    2
    25    55    57   am
    26    61    60    2
    27    58    59    1
    28    60    59    1
    29    59    62    1
    30    62    63    1
    31    32    31    2
    32    63    64    1
    33   100    99    2
    34    99    98    1
    35    77    78    1
    36    36    35    2
    37    31    30    1
    38    64    65    1
    39   101    98    1
    40   101   102    1
    41    69    70    1
    42    81    78    1
    43    78    79    1
    44    71    72    2
    45    71    70    1
    46    98    97    1
    47    35    37   am
    48    35    34    1
    49    33    30    1
    50    33    34    1
    51    75    74    2
    52    30    29    1
    53   102   104   ar
    54   102   103   ar
    55    70    73    1
    56    65    66    2
    57   104   106   ar
    58    68    66    1
    59    97    92   am
    60    79    80    2
    61    74    73    1
    62    74    76   am
    63   103   105   ar
    64    66    67    1
    65   106   105   ar
    66    92    93    2
    67    92    91    1
    68    23    24   ar
    69    23    21   ar
    70    26    24   ar
    71    26    28   ar
    72    24    22   ar
    73    28    27   ar
    74    90    91    1
    75    21    20   ar
    76    18    17    2
    77    96    94    1
    78    91    94    1
    79    22    20   ar
    80    22    25   ar
    81    17    16    1
    82    94    95    1
    83    13    14   ar
    84    13    11   ar
    85    20    19    1
    86    27    25   ar
    87    14    12   ar
    88    11     8   ar
    89    88    87   ar
    90    89    87   ar
    91    19    16    1
    92    16    15    1
    93    82    83    1
    94    87    86    1
    95     4     3    2
    96    12    10   ar
    97     8    10   ar
    98     8     6   ar
    99    10     9   ar
   100    83    86    1
   101    83    84    1
   102     3     2    1
   103     5     6    1
   104     5     2    1
   105     6     7   ar
   106     2     1    1
   107     9     7   ar
   108    84    85    2
