@<TRIPOS>MOLECULE
tmp/2c02A00.pdb
 175 167 0 0 0
SMALL
GASTEIGER

@<TRIPOS>ATOM
      1  N         18.9820   13.3570   12.3100 N.3     1  MET1       -0.1245
      2  CA        19.1270   12.9620   13.7390 C.3     1  MET1        0.1570
      3  C         18.6890   14.1250   14.6160 C.2     1  MET1        0.2261
      4  O         18.6150   15.2610   14.1510 O.2     1  MET1       -0.2867
      5  CB        20.5850   12.6060   14.0410 C.3     1  MET1        0.0387
      6  CG        21.5450   13.7880   14.0040 C.3     1  MET1        0.0595
      7  SD        21.6100   14.6170   12.4060 S.3     1  MET1       -0.1393
      8  CE        22.5720   13.4360   11.4460 C.3     1  MET1        0.0692
      9  N         10.7870   13.3950   20.2180 N.3     8  TRP8       -0.1241
     10  CA        10.5670   13.3480   18.7750 C.3     8  TRP8        0.1605
     11  C          9.5410   14.3790   18.3360 C.2     8  TRP8        0.2264
     12  O          9.6590   14.9560   17.2550 O.2     8  TRP8       -0.2867
     13  CB        10.1220   11.9550   18.3360 C.3     8  TRP8        0.0550
     14  CG        11.2340   10.9530   18.3740 C.ar    8  TRP8        0.0003
     15  CD1       11.3580    9.8980   19.2280 C.ar    8  TRP8        0.0946
     16  CD2       12.3870   10.9220   17.5240 C.ar    8  TRP8        0.0152
     17  NE1       12.5190    9.2070   18.9630 N.ar    8  TRP8       -0.2442
     18  CE2       13.1690    9.8150   17.9220 C.ar    8  TRP8        0.0810
     19  CE3       12.8360   11.7230   16.4650 C.ar    8  TRP8        0.0012
     20  CZ2       14.3760    9.4860   17.2970 C.ar    8  TRP8        0.0191
     21  CZ3       14.0380   11.3960   15.8420 C.ar    8  TRP8        0.0001
     22  CH2       14.7940   10.2850   16.2620 C.ar    8  TRP8        0.0015
     23  N         11.0750   17.8110   18.2100 N.3    11  TRP11      -0.1241
     24  CA        11.9820   17.8780   17.0680 C.3    11  TRP11       0.1605
     25  C         11.1820   18.0410   15.7780 C.2    11  TRP11       0.2264
     26  O         11.6120   18.7260   14.8410 O.2    11  TRP11      -0.2867
     27  CB        12.8350   16.6060   16.9910 C.3    11  TRP11       0.0550
     28  CG        13.8940   16.6570   15.9160 C.ar   11  TRP11       0.0003
     29  CD1       14.1400   15.7100   14.9630 C.ar   11  TRP11       0.0946
     30  CD2       14.8500   17.7060   15.6940 C.ar   11  TRP11       0.0152
     31  NE1       15.1840   16.1030   14.1620 N.ar   11  TRP11      -0.2442
     32  CE2       15.6390   17.3230   14.5880 C.ar   11  TRP11       0.0810
     33  CE3       15.1140   18.9320   16.3230 C.ar   11  TRP11       0.0012
     34  CZ2       16.6800   18.1240   14.0910 C.ar   11  TRP11       0.0191
     35  CZ3       16.1500   19.7300   15.8310 C.ar   11  TRP11       0.0001
     36  CH2       16.9190   19.3180   14.7230 C.ar   11  TRP11       0.0015
     37  N         11.5080   21.2210   13.3340 N.3    15  GLN15      -0.1231
     38  CA        11.8500   21.0520   11.9330 C.3    15  GLN15       0.1698
     39  C         10.7630   21.3180   10.9130 C.2    15  GLN15       0.2592
     40  O         11.0630   21.7570    9.8050 O.2    15  GLN15      -0.2718
     41  CB        12.3690   19.6340   11.6800 C.3    15  GLN15       0.0381
     42  CG        13.7640   19.3620   12.1800 C.3    15  GLN15       0.0905
     43  CD        14.3430   18.1120   11.5470 C.2    15  GLN15       0.2608
     44  OE1       15.4430   18.1330   10.9980 O.2    15  GLN15      -0.2717
     45  NE2       13.5980   17.0160   11.6170 N.am   15  GLN15      -0.0878
     46  N          9.5060   21.0690   11.2720 N.am   16  HIS16      -0.1976
     47  CA         8.4320   21.2140   10.2960 C.3    16  HIS16       0.1656
     48  C          7.2630   22.1310   10.6090 C.2    16  HIS16       0.2291
     49  O          6.3580   22.2710    9.7920 O.2    16  HIS16      -0.2864
     50  CB         7.9060   19.8180    9.9590 C.3    16  HIS16       0.0771
     51  CG         8.9870   18.8540    9.5860 C.ar   16  HIS16       0.0820
     52  ND1        9.7620   19.0110    8.4580 N.ar   16  HIS16      -0.2267
     53  CD2        9.4540   17.7480   10.2120 C.ar   16  HIS16       0.1154
     54  CE1       10.6590   18.0440    8.4040 C.ar   16  HIS16       0.1986
     55  NE2       10.4950   17.2630    9.4570 N.ar   16  HIS16      -0.2212
     56  N         21.5730   20.1230   14.2990 N.3    35  GLN35      -0.1245
     57  CA        22.0410   18.8660   13.7130 C.3    35  GLN35       0.1566
     58  C         23.5300   18.8540   13.3930 C.2    35  GLN35       0.2260
     59  O         24.0820   17.8130   13.0390 O.2    35  GLN35      -0.2867
     60  CB        21.2640   18.5470   12.4330 C.3    35  GLN35       0.0367
     61  CG        19.8880   17.9720   12.6560 C.3    35  GLN35       0.0905
     62  CD        19.2260   17.5380   11.3580 C.2    35  GLN35       0.2608
     63  OE1       18.2220   16.8240   11.3650 O.2    35  GLN35      -0.2717
     64  NE2       19.7830   17.9750   10.2370 N.am   35  GLN35      -0.0878
     65  N         21.2550   20.4290    6.4500 N.3    39  LYS39      -0.1245
     66  CA        20.2800   19.4840    5.9190 C.3    39  LYS39       0.1561
     67  C         20.0250   19.8220    4.4490 C.2    39  LYS39       0.2260
     68  O         19.7260   20.9670    4.1150 O.2    39  LYS39      -0.2867
     69  CB        18.9890   19.5890    6.7340 C.3    39  LYS39       0.0271
     70  CG        18.0510   18.4090    6.6090 C.3    39  LYS39       0.0035
     71  CD        16.8480   18.5830    7.5370 C.3    39  LYS39       0.0206
     72  CE        15.8930   17.4020    7.4370 C.3    39  LYS39       0.1093
     73  NZ        14.6690   17.6110    8.2500 N.3    39  LYS39      -0.1314
     74  N         17.5580   19.1950    2.4230 N.3    41  GLN41      -0.1231
     75  CA        16.2320   19.7290    2.1640 C.3    41  GLN41       0.1698
     76  C         15.3220   19.4880    3.3550 C.2    41  GLN41       0.2592
     77  O         15.5210   18.5570    4.1370 O.2    41  GLN41      -0.2718
     78  CB        15.6280   19.1570    0.8800 C.3    41  GLN41       0.0381
     79  CG        15.3870   17.6730    0.8290 C.3    41  GLN41       0.0905
     80  CD        14.9930   17.2410   -0.5790 C.2    41  GLN41       0.2608
     81  OE1       14.0450   17.7800   -1.1650 O.2    41  GLN41      -0.2717
     82  NE2       15.7240   16.2750   -1.1310 N.am   41  GLN41      -0.0878
     83  N         14.3260   20.3490    3.4970 N.am   42  ASN42      -0.1974
     84  CA        13.4220   20.2640    4.6250 C.3    42  ASN42       0.1688
     85  C         12.1250   21.0010    4.3280 C.2    42  ASN42       0.2292
     86  O         12.1390   22.0790    3.7370 O.2    42  ASN42      -0.2864
     87  CB        14.0940   20.8900    5.8400 C.3    42  ASN42       0.1181
     88  CG        13.2330   20.8250    7.0670 C.2    42  ASN42       0.2629
     89  OD1       13.0530   19.7550    7.6540 O.2    42  ASN42      -0.2716
     90  ND2       12.6780   21.9700    7.4630 N.am   42  ASN42      -0.0877
     91  N          2.8200    3.9700    5.7650 N.3    63  CYS63      -0.1235
     92  CA         3.6960    5.0950    5.4610 C.3    63  CYS63       0.1677
     93  C          4.3530    4.9230    4.0960 C.2    63  CYS63       0.2270
     94  O          5.0520    3.9390    3.8580 O.2    63  CYS63      -0.2867
     95  CB         4.7950    5.2090    6.5100 C.3    63  CYS63       0.0956
     96  SG         4.2610    5.5690    8.2070 S.3    63  CYS63      -0.0801
     97  N          6.9490    6.0160    2.8880 N.3    65  SER65      -0.1202
     98  CA         8.3890    5.7840    2.9940 C.3    65  SER65       0.2020
     99  C          8.7620    4.3810    3.4830 C.2    65  SER65       0.2618
    100  O          9.6930    3.7670    2.9570 O.2    65  SER65      -0.2717
    101  CB         9.0310    6.8240    3.9160 C.3    65  SER65       0.2103
    102  OG         8.8300    6.4960    5.2810 O.3    65  SER65      -0.2182
    103  N          8.0470    3.8740    4.4850 N.am   66  ASN66      -0.1974
    104  CA         8.3330    2.5420    5.0290 C.3    66  ASN66       0.1688
    105  C          7.0950    1.6540    5.0060 C.2    66  ASN66       0.2292
    106  O          6.1940    1.8150    5.8330 O.2    66  ASN66      -0.2864
    107  CB         8.8310    2.6580    6.4690 C.3    66  ASN66       0.1181
    108  CG         9.4620    1.3740    6.9760 C.2    66  ASN66       0.2629
    109  OD1        8.9830    0.2760    6.6910 O.2    66  ASN66      -0.2716
    110  ND2       10.5370    1.5090    7.7440 N.am   66  ASN66      -0.0877
    111  N          5.5830    0.2970    8.3330 N.3    69  ARG69      -0.1245
    112  CA         4.9930    1.1430    9.3660 C.3    69  ARG69       0.1563
    113  C          3.5470    1.4950    9.0500 C.2    69  ARG69       0.2260
    114  O          3.2090    1.8620    7.9270 O.2    69  ARG69      -0.2867
    115  CB         5.8160    2.4160    9.5550 C.3    69  ARG69       0.0307
    116  CG         7.2480    2.1500   10.0040 C.3    69  ARG69       0.0489
    117  CD         7.3150    1.0810   11.0870 C.3    69  ARG69       0.2205
    118  NE         6.5520    1.4240   12.2850 N.pl3  69  ARG69      -0.0865
    119  CZ         6.8860    2.3850   13.1380 C.cat  69  ARG69       0.5346
    120  NH1        6.1290    2.6200   14.2010 N.pl3  69  ARG69       0.1354
    121  NH2        7.9790    3.1100   12.9300 N.pl3  69  ARG69       0.1354
    122  N          1.7050    3.6250   11.2690 N.3    71  ASN71      -0.1240
    123  CA         1.3320    4.7270   12.1470 C.3    71  ASN71       0.1653
    124  C          1.2890    6.0760   11.4310 C.2    71  ASN71       0.2266
    125  O          1.4840    7.1230   12.0570 O.2    71  ASN71      -0.2867
    126  CB         2.2990    4.7920   13.3320 C.3    71  ASN71       0.1155
    127  CG         3.7150    5.1180   12.9050 C.2    71  ASN71       0.2627
    128  OD1        4.1690    4.6840   11.8470 O.2    71  ASN71      -0.2716
    129  ND2        4.4270    5.8730   13.7370 N.am   71  ASN71      -0.0877
    130  N          3.7060   10.5820   10.5860 N.3   111  ALA111     -0.1245
    131  CA         3.6820    9.4050   11.4320 C.3   111  ALA111      0.1562
    132  C          3.5550    9.9600   12.8380 C.2   111  ALA111      0.2260
    133  O          4.2020   10.9580   13.1790 O.2   111  ALA111     -0.2867
    134  CB         4.9780    8.6030   11.2860 C.3   111  ALA111      0.0290
    135  N          3.0350    8.8950   17.2060 N.3   113  ASP113     -0.1239
    136  CA         3.2310    7.8850   18.2440 C.3   113  ASP113      0.1674
    137  C          2.7540    8.4570   19.5730 C.2   113  ASP113      0.2266
    138  O          2.3730    9.6270   19.6570 O.2   113  ASP113     -0.2867
    139  CB         4.7160    7.5110   18.3890 C.3   113  ASP113      0.1410
    140  CG         5.2100    6.5940   17.2820 C.2   113  ASP113      0.3668
    141  OD1        4.4690    5.6650   16.8920 O.co2 113  ASP113     -0.2456
    142  OD2        6.3540    6.7880   16.8140 O.co2 113  ASP113     -0.2456
    143  N          5.5910   12.6070   14.9450 N.3   129  VAL129     -0.1231
    144  CA         7.0120   12.4050   15.2130 C.3   129  VAL129      0.1692
    145  C          7.8490   12.3720   13.9460 C.2   129  VAL129      0.2592
    146  O          9.0770   12.4080   14.0060 O.2   129  VAL129     -0.2718
    147  CB         7.2560   11.0870   15.9890 C.3   129  VAL129      0.0266
    148  CG1        6.6330   11.1720   17.3740 C.3   129  VAL129      0.0020
    149  CG2        6.6720    9.9120   15.2230 C.3   129  VAL129      0.0020
    150  N          7.1860   12.3210   12.7960 N.am  130  HIS130     -0.1962
    151  CA         7.8960   12.2580   11.5280 C.3   130  HIS130      0.1787
    152  C          7.0290   12.6980   10.3490 C.2   130  HIS130      0.2620
    153  O          5.8470   12.3700   10.2780 O.2   130  HIS130     -0.2715
    154  CB         8.3770   10.8220   11.3000 C.3   130  HIS130      0.0785
    155  CG         8.9510   10.5790    9.9390 C.ar  130  HIS130      0.0821
    156  ND1       10.1460   11.1270    9.5240 N.ar  130  HIS130     -0.2267
    157  CD2        8.4940    9.8410    8.8990 C.ar  130  HIS130      0.1154
    158  CE1       10.4000   10.7370    8.2880 C.ar  130  HIS130      0.1986
    159  NE2        9.4140    9.9560    7.8850 N.ar  130  HIS130     -0.2212
    160  N          7.6240   13.4530    9.4320 N.am  131  LEU131     -0.1963
    161  CA         6.9150   13.8960    8.2350 C.3   131  LEU131      0.1728
    162  C          7.2910   12.8690    7.1790 C.2   131  LEU131      0.2616
    163  O          8.4230   12.8440    6.7060 O.2   131  LEU131     -0.2715
    164  CB         7.3780   15.2900    7.8030 C.3   131  LEU131      0.0311
    165  CG         6.7130   15.8240    6.5290 C.3   131  LEU131      0.0022
    166  CD1        5.1980   15.7210    6.6580 C.3   131  LEU131      0.0001
    167  CD2        7.1290   17.2740    6.2920 C.3   131  LEU131      0.0001
    168  N          6.3420   12.0190    6.8080 N.am  132  ASP132     -0.1971
    169  CA         6.6270   10.9700    5.8460 C.3   132  ASP132      0.1709
    170  C          6.5580   11.3970    4.3880 C.2   132  ASP132      0.2293
    171  O          7.3380   10.9140    3.5620 O.2   132  ASP132     -0.2864
    172  CB         5.6900    9.7840    6.0920 C.3   132  ASP132      0.1436
    173  CG         6.2340    8.4910    5.5250 C.2   132  ASP132      0.3671
    174  OD1        5.8740    8.1330    4.3860 O.co2 132  ASP132     -0.2456
    175  OD2        7.0380    7.8390    6.2200 O.co2 132  ASP132     -0.2456
@<TRIPOS>BOND
     1    81    80    2
     2    82    80   am
     3    80    79    1
     4    79    78    1
     5    78    75    1
     6    75    74    1
     7    75    76    1
     8    97    98    1
     9   100    99    2
    10    98    99    1
    11    98   101    1
    12    76    83   am
    13    76    77    2
    14    99   103   am
    15    83    84    1
    16   171   170    2
    17    86    85    2
    18    94    93    2
    19   101   102    1
    20    93    92    1
    21    68    67    2
    22    85    84    1
    23   174   173   ar
    24   170   169    1
    25    67    66    1
    26   103   104    1
    27    84    87    1
    28   105   104    1
    29   105   106    2
    30   104   107    1
    31    92    91    1
    32    92    95    1
    33   173   172    1
    34   173   175   ar
    35    87    88    1
    36   169   172    1
    37   169   168    1
    38    66    65    1
    39    66    69    1
    40   167   165    1
    41   107   108    1
    42    95    96    1
    43   165   166    1
    44   165   164    1
    45    70    69    1
    46    70    71    1
    47   109   108    2
    48   163   162    2
    49   168   162   am
    50   108   110   am
    51    88    90   am
    52    88    89    2
    53   162   161    1
    54    72    71    1
    55    72    73    1
    56   164   161    1
    57   159   158   ar
    58   159   157   ar
    59   114   113    2
    60   161   160    1
    61   158   156   ar
    62   111   112    1
    63    54    52   ar
    64    54    55   ar
    65    52    51   ar
    66   157   155   ar
    67   113   112    1
    68   112   115    1
    69   160   152   am
    70    55    53   ar
    71   156   155   ar
    72   115   116    1
    73    51    50    1
    74    51    53   ar
    75    49    48    2
    76    40    39    2
    77   155   154    1
    78    50    47    1
    79   116   117    1
    80    64    62   am
    81   153   152    2
    82    47    48    1
    83    47    46    1
    84   152   151    1
    85   130   131    1
    86    39    46   am
    87    39    38    1
    88    44    43    2
    89   117   118    1
    90   122   123    1
    91   134   131    1
    92   154   151    1
    93    62    63    2
    94    62    61    1
    95   124   125    2
    96   124   123    1
    97   131   132    1
    98     8     7    1
    99   151   150    1
   100    43    45   am
   101    43    42    1
   102    41    38    1
   103    41    42    1
   104   128   127    2
   105    38    37    1
   106   123   126    1
   107   118   119    2
   108     1     2    1
   109     7     6    1
   110    60    61    1
   111    60    57    1
   112   150   145   am
   113   132   133    2
   114   127   126    1
   115   127   129   am
   116   121   119    1
   117    59    58    2
   118   119   120    1
   119    58    57    1
   120    57    56    1
   121     2     5    1
   122     2     3    1
   123   145   146    2
   124   145   144    1
   125     6     5    1
   126    34    32   ar
   127    34    36   ar
   128     4     3    2
   129    31    32   ar
   130    31    29   ar
   131    32    30   ar
   132    36    35   ar
   133    26    25    2
   134   143   144    1
   135    29    28   ar
   136   144   147    1
   137   149   147    1
   138    30    28   ar
   139    30    33   ar
   140    25    24    1
   141    35    33   ar
   142    21    22   ar
   143    21    19   ar
   144    28    27    1
   145   147   148    1
   146    22    20   ar
   147    19    16   ar
   148   142   140   ar
   149   141   140   ar
   150    27    24    1
   151    24    23    1
   152   135   136    1
   153    12    11    2
   154   140   139    1
   155    20    18   ar
   156    16    18   ar
   157    16    14   ar
   158    18    17   ar
   159   136   139    1
   160   136   137    1
   161    13    14    1
   162    13    10    1
   163    11    10    1
   164    14    15   ar
   165    10     9    1
   166    17    15   ar
   167   137   138    2
