@<TRIPOS>MOLECULE
tmp/2c04A00.pdb
 143 133 0 0 0
SMALL
GASTEIGER

@<TRIPOS>ATOM
      1  N         68.0910   34.8770    9.8210 N.3   106  LEU106     -0.1231
      2  CA        69.0730   35.8190   10.2990 C.3   106  LEU106      0.1693
      3  C         70.2060   35.1630   11.0570 C.2   106  LEU106      0.2592
      4  O         70.1100   34.0240   11.4950 O.2   106  LEU106     -0.2718
      5  CB        68.4090   36.8210   11.2450 C.3   106  LEU106      0.0284
      6  CG        67.2290   37.6090   10.6960 C.3   106  LEU106      0.0019
      7  CD1       66.7990   38.6200   11.7330 C.3   106  LEU106      0.0001
      8  CD2       67.6020   38.2970    9.3980 C.3   106  LEU106      0.0001
      9  N         71.2760   35.9230   11.2400 N.am  107  GLN107     -0.1966
     10  CA        72.3500   35.5210   12.1350 C.3   107  GLN107      0.1733
     11  C         71.7460   35.1620   13.5000 C.2   107  GLN107      0.2617
     12  O         70.7960   35.8000   13.9550 O.2   107  GLN107     -0.2715
     13  CB        73.3800   36.6560   12.2810 C.3   107  GLN107      0.0408
     14  CG        74.8110   36.2000   12.4080 C.3   107  GLN107      0.0908
     15  CD        75.7930   37.3540   12.3450 C.2   107  GLN107      0.2608
     16  OE1       75.7350   38.1860   11.4390 O.2   107  GLN107     -0.2717
     17  NE2       76.7140   37.4020   13.3050 N.am  107  GLN107     -0.0878
     18  N         72.2770   34.1240   14.1340 N.am  108  GLY108     -0.1940
     19  CA        71.8290   33.7240   15.4610 C.3   108  GLY108      0.2014
     20  C         70.5540   32.8960   15.4690 C.2   108  GLY108      0.2640
     21  O         69.9890   32.6270   16.5350 O.2   108  GLY108     -0.2714
     22  N         70.0760   32.5140   14.2920 N.am  109  SER109     -0.1935
     23  CA        68.8050   31.8020   14.2010 C.3   109  SER109      0.2055
     24  C         68.9390   30.3240   14.4720 C.2   109  SER109      0.2644
     25  O         67.9180   29.6650   14.6780 O.2   109  SER109     -0.2714
     26  CB        68.2280   31.9670   12.8110 C.3   109  SER109      0.2130
     27  OG        69.0900   31.4230   11.8370 O.3   109  SER109     -0.2179
     28  N         70.1550   29.7970   14.3970 N.am  110  GLY110     -0.1939
     29  CA        70.3400   28.3480   14.3180 C.3   110  GLY110      0.2014
     30  C         70.4050   27.8000   12.9070 C.2   110  GLY110      0.2639
     31  O         70.4250   26.5930   12.7210 O.2   110  GLY110     -0.2714
     32  N         70.5530   28.6630   11.9180 N.am  111  LYS111     -0.1963
     33  CA        70.5190   28.2220   10.5350 C.3   111  LYS111      0.1728
     34  C         71.6100   27.1850   10.1570 C.2   111  LYS111      0.2617
     35  O         71.3050   26.1370    9.6110 O.2   111  LYS111     -0.2715
     36  CB        70.5330   29.4620    9.6430 C.3   111  LYS111      0.0311
     37  CG        70.6160   29.1930    8.1760 C.3   111  LYS111      0.0038
     38  CD        70.6560   30.4800    7.3730 C.3   111  LYS111      0.0206
     39  CE        71.7430   31.4700    7.7320 C.3   111  LYS111      0.1093
     40  NZ        73.0850   30.9170    7.5990 N.3   111  LYS111     -0.1314
     41  N         72.8810   27.5510   10.3500 N.am  112  THR112     -0.1937
     42  CA        73.9710   26.6820    9.9400 C.3   112  THR112      0.2028
     43  C         73.9600   25.3600   10.6930 C.2   112  THR112      0.2643
     44  O         74.1060   24.3030   10.1080 O.2   112  THR112     -0.2714
     45  CB        75.3370   27.3990   10.1030 C.3   112  THR112      0.1808
     46  OG1       75.3660   28.4650    9.1590 O.3   112  THR112     -0.2208
     47  CG2       76.4790   26.4850    9.8440 C.3   112  THR112      0.0379
     48  N         73.7660   25.3970   12.0060 N.am  113  THR113     -0.1936
     49  CA        73.7440   24.1530   12.7790 C.3   113  THR113      0.2028
     50  C         72.4780   23.3170   12.4460 C.2   113  THR113      0.2642
     51  O         72.4870   22.0900   12.5280 O.2   113  THR113     -0.2714
     52  CB        73.8480   24.4350   14.2850 C.3   113  THR113      0.1808
     53  OG1       72.7800   25.3010   14.6780 O.3   113  THR113     -0.2208
     54  CG2       75.2020   25.0700   14.6330 C.3   113  THR113      0.0379
     55  N         71.3970   23.9900   12.0630 N.am  114  THR114     -0.1950
     56  CA        70.2150   23.2880   11.5870 C.3   114  THR114      0.1897
     57  C         70.4850   22.6040   10.2470 C.2   114  THR114      0.2313
     58  O         70.0820   21.4770   10.0620 O.2   114  THR114     -0.2863
     59  CB        69.0160   24.2660   11.4540 C.3   114  THR114      0.1794
     60  OG1       68.5990   24.7060   12.7530 O.3   114  THR114     -0.2208
     61  CG2       67.8270   23.5940   10.8230 C.3   114  THR114      0.0378
     62  N         72.3830   19.4450   11.1830 N.3   117  LYS117     -0.1245
     63  CA        71.5630   18.4660   11.8790 C.3   117  LYS117      0.1561
     64  C         70.4770   17.9190   10.9370 C.2   117  LYS117      0.2260
     65  O         70.0230   16.7980   11.0940 O.2   117  LYS117     -0.2867
     66  CB        70.9370   19.0700   13.1240 C.3   117  LYS117      0.0271
     67  CG        71.9200   19.4310   14.2150 C.3   117  LYS117      0.0035
     68  CD        71.1700   20.0320   15.3840 C.3   117  LYS117      0.0206
     69  CE        72.1110   20.6980   16.3620 C.3   117  LYS117      0.1093
     70  NZ        71.4470   21.0940   17.6430 N.3   117  LYS117     -0.1314
     71  N         82.0180   31.8990    7.8710 N.3   141  ALA141     -0.1245
     72  CA        80.6690   31.3340    7.9220 C.3   141  ALA141      0.1562
     73  C         80.6180   30.0240    7.1420 C.2   141  ALA141      0.2260
     74  O         79.9040   29.0980    7.5210 O.2   141  ALA141     -0.2867
     75  CB        79.6570   32.3130    7.3840 C.3   141  ALA141      0.0290
     76  N         82.5900   27.2360    9.1760 N.3   144  GLN144     -0.1245
     77  CA        81.7620   26.7490   10.2730 C.3   144  GLN144      0.1566
     78  C         80.9180   25.5610    9.7860 C.2   144  GLN144      0.2260
     79  O         80.8380   24.5150   10.4310 O.2   144  GLN144     -0.2867
     80  CB        80.8690   27.8750   10.7880 C.3   144  GLN144      0.0367
     81  CG        79.9820   27.4750   11.9560 C.3   144  GLN144      0.0905
     82  CD        78.9270   28.5100   12.2810 C.2   144  GLN144      0.2608
     83  OE1       78.3290   29.1080   11.3930 O.2   144  GLN144     -0.2717
     84  NE2       78.6740   28.7030   13.5650 N.am  144  GLN144     -0.0878
     85  N         74.0560   34.3450    6.8410 N.3   190  GLY190     -0.1225
     86  CA        73.4560   34.8930    8.0450 C.3   190  GLY190      0.1811
     87  C         74.0520   36.2460    8.4220 C.2   190  GLY190      0.2280
     88  O         75.2620   36.3730    8.6150 O.2   190  GLY190     -0.2866
     89  N         63.4180   32.0700   20.8010 N.3   221  MET221     -0.1245
     90  CA        63.6430   32.9360   21.9650 C.3   221  MET221      0.1570
     91  C         63.6300   34.4370   21.6240 C.2   221  MET221      0.2261
     92  O         63.7650   35.2870   22.5080 O.2   221  MET221     -0.2867
     93  CB        64.9710   32.5800   22.6370 C.3   221  MET221      0.0387
     94  CG        64.9990   31.2100   23.2780 C.3   221  MET221      0.0595
     95  SD        66.6380   30.7600   23.8640 S.3   221  MET221     -0.1393
     96  CE        66.8140   31.8680   25.2580 C.3   221  MET221      0.0692
     97  N         64.0280   27.0410   16.2890 N.3   245  THR245     -0.1203
     98  CA        65.1130   26.5710   17.1070 C.3   245  THR245      0.1994
     99  C         65.0370   27.1730   18.5050 C.2   245  THR245      0.2617
    100  O         64.3350   28.1360   18.7480 O.2   245  THR245     -0.2717
    101  CB        66.4540   26.9420   16.4930 C.3   245  THR245      0.1784
    102  OG1       66.5930   28.3600   16.5110 O.3   245  THR245     -0.2211
    103  CG2       66.5500   26.4210   15.0490 C.3   245  THR245      0.0376
    104  N         65.8000   26.5700   19.3980 N.am  246  LYS246     -0.1979
    105  CA        65.9530   27.0550   20.7660 C.3   246  LYS246      0.1596
    106  C         64.6310   27.0050   21.5440 C.2   246  LYS246      0.2287
    107  O         64.4030   27.8020   22.4570 O.2   246  LYS246     -0.2864
    108  CB        66.5960   28.4470   20.8180 C.3   246  LYS246      0.0298
    109  CG        67.8500   28.5290   19.9630 C.3   246  LYS246      0.0038
    110  CD        68.5880   29.8160   20.1510 C.3   246  LYS246      0.0206
    111  CE        69.4850   30.1020   18.9750 C.3   246  LYS246      0.1093
    112  NZ        70.1270   31.4400   19.0610 N.3   246  LYS246     -0.1314
    113  N         64.1860   24.7390   23.5050 N.3   248  ASP248     -0.1225
    114  CA        64.7260   24.3820   24.8230 C.3   248  ASP248      0.1805
    115  C         65.1160   25.6100   25.6580 C.2   248  ASP248      0.2598
    116  O         65.4790   25.4760   26.8270 O.2   248  ASP248     -0.2718
    117  CB        65.9350   23.4390   24.6890 C.3   248  ASP248      0.1424
    118  CG        67.0350   24.0030   23.7910 C.2   248  ASP248      0.3668
    119  OD1       66.7210   24.3700   22.6410 O.co2 248  ASP248     -0.2456
    120  OD2       68.2050   24.0720   24.2310 O.co2 248  ASP248     -0.2456
    121  N         65.0330   26.8010   25.0630 N.am  249  GLY249     -0.1957
    122  CA        65.4060   28.0470   25.7440 C.3   249  GLY249      0.1869
    123  C         64.3050   28.5990   26.6310 C.2   249  GLY249      0.2309
    124  O         63.1660   28.1750   26.5600 O.2   249  GLY249     -0.2863
    125  N         64.3210   22.7540   16.5900 N.3   271  GLY271     -0.1225
    126  CA        65.6110   22.5390   17.2320 C.3   271  GLY271      0.1811
    127  C         65.4620   22.5800   18.7390 C.2   271  GLY271      0.2280
    128  O         64.8380   23.4920   19.2980 O.2   271  GLY271     -0.2866
    129  N         68.3220   21.6370   20.9130 N.3   273  SER273     -0.1202
    130  CA        69.6270   21.7430   21.5680 C.3   273  SER273      0.2020
    131  C         70.6870   22.2940   20.6170 C.2   273  SER273      0.2618
    132  O         70.4360   22.4710   19.4260 O.2   273  SER273     -0.2717
    133  CB        70.0820   20.3810   22.0970 C.3   273  SER273      0.2103
    134  OG        70.7690   19.6470   21.0920 O.3   273  SER273     -0.2182
    135  N         71.8720   22.5500   21.1620 N.am  274  GLU274     -0.1979
    136  CA        73.0090   23.0280   20.3780 C.3   274  GLU274      0.1602
    137  C         73.7110   21.8810   19.6470 C.2   274  GLU274      0.2287
    138  O         74.5470   22.1130   18.7690 O.2   274  GLU274     -0.2864
    139  CB        74.0140   23.7570   21.2800 C.3   274  GLU274      0.0415
    140  CG        73.6460   25.2030   21.6020 C.3   274  GLU274      0.1163
    141  CD        74.6600   25.8770   22.5180 C.2   274  GLU274      0.3649
    142  OE1       75.1270   25.2160   23.4640 O.co2 274  GLU274     -0.2457
    143  OE2       74.9810   27.0710   22.3030 O.co2 274  GLU274     -0.2457
@<TRIPOS>BOND
     1    85    86    1
     2    73    74    2
     3    73    72    1
     4    38    39    1
     5    38    37    1
     6    75    72    1
     7    40    39    1
     8    71    72    1
     9    86    87    1
    10    37    36    1
    11    87    88    2
    12    46    45    1
    13    76    77    1
    14     8     6    1
    15    35    34    2
    16    36    33    1
    17    78    77    1
    18    78    79    2
    19     1     2    1
    20    47    45    1
    21    42    45    1
    22    42    41    1
    23    42    43    1
    24    58    57    2
    25    44    43    2
    26    34    41   am
    27    34    33    1
    28    57    56    1
    29    77    80    1
    30     2     3    1
    31     2     5    1
    32    33    32    1
    33    43    48   am
    34     6     5    1
    35     6     7    1
    36    80    81    1
    37    61    59    1
    38    64    65    2
    39    64    63    1
    40     3     9   am
    41     3     4    2
    42    62    63    1
    43     9    10    1
    44    83    82    2
    45    16    15    2
    46    59    56    1
    47    59    60    1
    48    56    55    1
    49    27    26    1
    50    63    66    1
    51    32    30   am
    52    81    82    1
    53    48    49    1
    54    55    50   am
    55    10    13    1
    56    10    11    1
    57    13    14    1
    58    82    84   am
    59    15    14    1
    60    15    17   am
    61    50    51    2
    62    50    49    1
    63    31    30    2
    64    49    52    1
    65    26    23    1
    66    30    29    1
    67    66    67    1
    68    11    12    2
    69    11    18   am
    70    18    19    1
    71    23    22    1
    72    23    24    1
    73    67    68    1
    74    52    54    1
    75    52    53    1
    76    22    20   am
    77    29    28    1
    78    28    24   am
    79    24    25    2
    80   103   101    1
    81    68    69    1
    82    19    20    1
    83    20    21    2
    84    97    98    1
    85    69    70    1
    86   101   102    1
    87   101    98    1
    88   125   126    1
    89    98    99    1
    90   126   127    1
    91    99   100    2
    92    99   104   am
    93   127   128    2
    94   138   137    2
    95   111   112    1
    96   111   110    1
    97   104   105    1
    98   132   131    2
    99   137   136    1
   100   109   110    1
   101   109   108    1
   102   136   135    1
   103   136   139    1
   104   131   135   am
   105   131   130    1
   106   105   108    1
   107   105   106    1
   108    89    90    1
   109   129   130    1
   110   134   133    1
   111   139   140    1
   112   106   107    2
   113   130   133    1
   114   140   141    1
   115    91    90    1
   116    91    92    2
   117    90    93    1
   118   143   141   ar
   119   141   142   ar
   120    93    94    1
   121   119   118   ar
   122    94    95    1
   123   113   114    1
   124   118   120   ar
   125   118   117    1
   126    95    96    1
   127   117   114    1
   128   114   115    1
   129   121   115   am
   130   121   122    1
   131   115   116    2
   132   122   123    1
   133   124   123    2
