@<TRIPOS>MOLECULE
tmp/2c05A00.pdb
 180 173 0 0 0
SMALL
GASTEIGER

@<TRIPOS>ATOM
      1  N         18.9550   13.4400   12.2370 N.3     1  MET1       -0.1245
      2  CA        19.0740   13.0630   13.6760 C.3     1  MET1        0.1570
      3  C         18.6610   14.2440   14.5390 C.2     1  MET1        0.2261
      4  O         18.6390   15.3770   14.0660 O.2     1  MET1       -0.2867
      5  CB        20.5160   12.6710   13.9990 C.3     1  MET1        0.0387
      6  CG        21.5220   13.8070   13.8670 C.3     1  MET1        0.0595
      7  SD        21.6420   14.4730   12.1980 S.3     1  MET1       -0.1393
      8  CE        22.3730   13.0670   11.3340 C.3     1  MET1        0.0692
      9  N         10.7990   13.5100   20.1560 N.3     8  TRP8       -0.1241
     10  CA        10.5420   13.4600   18.7160 C.3     8  TRP8        0.1605
     11  C          9.4980   14.4890   18.2840 C.2     8  TRP8        0.2264
     12  O          9.6270   15.0990   17.2190 O.2     8  TRP8       -0.2867
     13  CB        10.1030   12.0620   18.2850 C.3     8  TRP8        0.0550
     14  CG        11.2200   11.0750   18.3350 C.ar    8  TRP8        0.0003
     15  CD1       11.4020   10.0880   19.2580 C.ar    8  TRP8        0.0946
     16  CD2       12.3380   11.0050   17.4450 C.ar    8  TRP8        0.0152
     17  NE1       12.5650    9.4060   19.0000 N.ar    8  TRP8       -0.2442
     18  CE2       13.1610    9.9470   17.8920 C.ar    8  TRP8        0.0810
     19  CE3       12.7260   11.7340   16.3120 C.ar    8  TRP8        0.0012
     20  CZ2       14.3500    9.5980   17.2460 C.ar    8  TRP8        0.0191
     21  CZ3       13.9090   11.3890   15.6690 C.ar    8  TRP8        0.0001
     22  CH2       14.7080   10.3270   16.1400 C.ar    8  TRP8        0.0015
     23  N         11.0790   17.8700   18.1100 N.3    11  TRP11      -0.1227
     24  CA        11.9770   17.9630   16.9650 C.3    11  TRP11       0.1737
     25  C         11.1530   18.1410   15.6850 C.2    11  TRP11       0.2595
     26  O         11.5180   18.9130   14.7980 O.2    11  TRP11      -0.2718
     27  CB        12.8370   16.7010   16.8700 C.3    11  TRP11       0.0564
     28  CG        13.8850   16.7650   15.7930 C.ar   11  TRP11       0.0003
     29  CD1       14.1450   15.8140   14.8470 C.ar   11  TRP11       0.0946
     30  CD2       14.8330   17.8200   15.5710 C.ar   11  TRP11       0.0152
     31  NE1       15.1920   16.2080   14.0530 N.ar   11  TRP11      -0.2442
     32  CE2       15.6340   17.4350   14.4720 C.ar   11  TRP11       0.0810
     33  CE3       15.0840   19.0530   16.1930 C.ar   11  TRP11       0.0012
     34  CZ2       16.6720   18.2410   13.9770 C.ar   11  TRP11       0.0191
     35  CZ3       16.1180   19.8570   15.7000 C.ar   11  TRP11       0.0001
     36  CH2       16.8980   19.4430   14.6010 C.ar   11  TRP11       0.0015
     37  N         10.0410   17.4170   15.5950 N.am   12  PHE12      -0.1976
     38  CA         9.1460   17.5140   14.4450 C.3    12  PHE12       0.1639
     39  C          8.6620   18.9650   14.3350 C.2    12  PHE12       0.2290
     40  O          8.6450   19.5610   13.2550 O.2    12  PHE12      -0.2864
     41  CB         7.9410   16.5860   14.6460 C.3    12  PHE12       0.0560
     42  CG         6.8790   16.7390   13.5960 C.ar   12  PHE12      -0.0200
     43  CD1        6.9490   16.0200   12.4030 C.ar   12  PHE12      -0.0042
     44  CD2        5.8370   17.6450   13.7760 C.ar   12  PHE12      -0.0042
     45  CE1        5.9990   16.2040   11.4010 C.ar   12  PHE12      -0.0003
     46  CE2        4.8810   17.8400   12.7800 C.ar   12  PHE12      -0.0003
     47  CZ         4.9640   17.1150   11.5850 C.ar   12  PHE12      -0.0000
     48  N         11.5090   21.2890   13.2190 N.3    15  GLN15      -0.1231
     49  CA        11.8460   21.1110   11.8140 C.3    15  GLN15       0.1698
     50  C         10.7450   21.3870   10.8030 C.2    15  GLN15       0.2592
     51  O         11.0220   21.8830    9.7130 O.2    15  GLN15      -0.2718
     52  CB        12.3210   19.6790   11.5530 C.3    15  GLN15       0.0381
     53  CG        13.6090   19.2560   12.2060 C.3    15  GLN15       0.0905
     54  CD        14.1790   18.0320   11.5170 C.2    15  GLN15       0.2608
     55  OE1       15.1960   18.1090   10.8340 O.2    15  GLN15      -0.2717
     56  NE2       13.5050   16.9020   11.6700 N.am   15  GLN15      -0.0878
     57  N          9.5030   21.0700   11.1580 N.am   16  HIS16      -0.1976
     58  CA         8.4130   21.1970   10.1980 C.3    16  HIS16       0.1656
     59  C          7.2350   22.1080   10.5090 C.2    16  HIS16       0.2291
     60  O          6.3140   22.2150    9.6950 O.2    16  HIS16      -0.2864
     61  CB         7.8910   19.7930    9.8750 C.3    16  HIS16       0.0771
     62  CG         8.9680   18.8250    9.4820 C.ar   16  HIS16       0.0820
     63  ND1        9.6980   18.9540    8.3190 N.ar   16  HIS16      -0.2267
     64  CD2        9.4450   17.7190   10.1030 C.ar   16  HIS16       0.1154
     65  CE1       10.5760   17.9690    8.2390 C.ar   16  HIS16       0.1986
     66  NE2       10.4420   17.2050    9.3090 N.ar   16  HIS16      -0.2212
     67  N         21.5290   20.2540   14.2900 N.3    35  GLN35      -0.1245
     68  CA        22.0240   18.9960   13.7180 C.3    35  GLN35       0.1566
     69  C         23.5130   18.9840   13.3960 C.2    35  GLN35       0.2260
     70  O         24.0740   17.9300   13.0970 O.2    35  GLN35      -0.2867
     71  CB        21.2570   18.6400   12.4460 C.3    35  GLN35       0.0367
     72  CG        19.8340   18.2310   12.6850 C.3    35  GLN35       0.0905
     73  CD        19.1600   17.7540   11.4180 C.2    35  GLN35       0.2608
     74  OE1       19.6400   16.8390   10.7580 O.2    35  GLN35      -0.2717
     75  NE2       18.0370   18.3700   11.0730 N.am   35  GLN35      -0.0878
     76  N         25.1810   20.3950   10.7810 N.3    37  ARG37      -0.1245
     77  CA        25.3840   20.1480    9.3580 C.3    37  ARG37       0.1563
     78  C         24.2510   20.8480    8.6170 C.2    37  ARG37       0.2260
     79  O         23.2140   21.1530    9.2070 O.2    37  ARG37      -0.2867
     80  CB        25.3850   18.6410    9.0500 C.3    37  ARG37       0.0307
     81  CG        24.0970   18.0730    8.4570 C.3    37  ARG37       0.0489
     82  CD        22.9560   18.0310    9.4580 C.3    37  ARG37       0.2205
     83  NE        21.7460   17.4300    8.8920 N.pl3  37  ARG37      -0.0865
     84  CZ        21.6570   16.1680    8.4790 C.cat  37  ARG37       0.5346
     85  NH1       20.5170   15.7110    7.9780 N.pl3  37  ARG37       0.1354
     86  NH2       22.7050   15.3620    8.5690 N.pl3  37  ARG37       0.1354
     87  N         21.3560   20.5320    6.4180 N.3    39  LYS39      -0.1245
     88  CA        20.4090   19.5710    5.8660 C.3    39  LYS39       0.1561
     89  C         20.1320   19.9130    4.3960 C.2    39  LYS39       0.2260
     90  O         19.8880   21.0700    4.0520 O.2    39  LYS39      -0.2867
     91  CB        19.1250   19.6140    6.6880 C.3    39  LYS39       0.0271
     92  CG        18.1890   18.4520    6.4820 C.3    39  LYS39       0.0035
     93  CD        16.9870   18.6120    7.3970 C.3    39  LYS39       0.0206
     94  CE        15.9850   17.4950    7.2180 C.3    39  LYS39       0.1093
     95  NZ        14.7950   17.7170    8.0780 N.3    39  LYS39      -0.1314
     96  N          2.9680    3.8890    5.8680 N.3    63  CYS63      -0.1235
     97  CA         3.8380    5.0180    5.5570 C.3    63  CYS63       0.1677
     98  C          4.5160    4.8530    4.2050 C.2    63  CYS63       0.2270
     99  O          5.2220    3.8680    3.9790 O.2    63  CYS63      -0.2867
    100  CB         4.9240    5.1550    6.6090 C.3    63  CYS63       0.0956
    101  SG         4.3530    5.5270    8.2870 S.3    63  CYS63      -0.0801
    102  N          7.1470    6.0140    3.0220 N.3    65  SER65      -0.1202
    103  CA         8.5930    5.8130    3.1550 C.3    65  SER65       0.2020
    104  C          8.9670    4.4570    3.7620 C.2    65  SER65       0.2618
    105  O         10.0450    3.9300    3.4850 O.2    65  SER65      -0.2717
    106  CB         9.2220    6.9200    4.0040 C.3    65  SER65       0.2103
    107  OG         9.1900    6.5810    5.3820 O.3    65  SER65      -0.2182
    108  N          8.0980    3.8980    4.6010 N.am   66  ASN66      -0.1974
    109  CA         8.3840    2.5980    5.2010 C.3    66  ASN66       0.1688
    110  C          7.1980    1.6550    5.1070 C.2    66  ASN66       0.2292
    111  O          6.2480    1.7400    5.8860 O.2    66  ASN66      -0.2864
    112  CB         8.7920    2.7340    6.6660 C.3    66  ASN66       0.1181
    113  CG         9.5530    1.5110    7.1690 C.2    66  ASN66       0.2629
    114  OD1        9.1650    0.3690    6.9040 O.2    66  ASN66      -0.2716
    115  ND2       10.6410    1.7480    7.8970 N.am   66  ASN66      -0.0877
    116  N          5.6430    0.2910    8.3650 N.3    69  ARG69      -0.1245
    117  CA         5.0390    1.0960    9.4230 C.3    69  ARG69       0.1563
    118  C          3.5870    1.4550    9.1320 C.2    69  ARG69       0.2260
    119  O          3.2350    1.8550    8.0230 O.2    69  ARG69      -0.2867
    120  CB         5.8510    2.3710    9.6620 C.3    69  ARG69       0.0307
    121  CG         7.2880    2.1250   10.1160 C.3    69  ARG69       0.0489
    122  CD         7.3800    1.0580   11.1940 C.3    69  ARG69       0.2205
    123  NE         6.6300    1.3830   12.4060 N.pl3  69  ARG69      -0.0865
    124  CZ         6.9220    2.3920   13.2220 C.cat  69  ARG69       0.5346
    125  NH1        6.1840    2.6080   14.3050 N.pl3  69  ARG69       0.1354
    126  NH2        7.9520    3.1880   12.9530 N.pl3  69  ARG69       0.1354
    127  N          1.8400    3.5850   11.3230 N.3    71  ASN71      -0.1240
    128  CA         1.5050    4.7020   12.1980 C.3    71  ASN71       0.1653
    129  C          1.3990    6.0260   11.4530 C.2    71  ASN71       0.2266
    130  O          1.5290    7.0840   12.0590 O.2    71  ASN71      -0.2867
    131  CB         2.5310    4.8160   13.3330 C.3    71  ASN71       0.1155
    132  CG         3.9270    5.1270   12.8330 C.2    71  ASN71       0.2627
    133  OD1        4.3000    4.7610   11.7160 O.2    71  ASN71      -0.2716
    134  ND2        4.7170    5.7910   13.6690 N.am   71  ASN71      -0.0877
    135  N          3.7420   10.5620   10.5800 N.3   111  ALA111     -0.1245
    136  CA         3.7820    9.3860   11.4230 C.3   111  ALA111      0.1562
    137  C          3.6240    9.9480   12.8300 C.2   111  ALA111      0.2260
    138  O          4.2500   10.9520   13.1770 O.2   111  ALA111     -0.2867
    139  CB         5.1190    8.6710   11.2770 C.3   111  ALA111      0.0290
    140  N          3.0880    8.9320   17.1980 N.3   113  ASP113     -0.1239
    141  CA         3.3140    7.9400   18.2490 C.3   113  ASP113      0.1674
    142  C          2.8150    8.5100   19.5680 C.2   113  ASP113      0.2266
    143  O          2.3790    9.6630   19.6370 O.2   113  ASP113     -0.2867
    144  CB         4.8100    7.6130   18.4040 C.3   113  ASP113      0.1410
    145  CG         5.3380    6.6930   17.3110 C.2   113  ASP113      0.3668
    146  OD1        4.5850    5.8040   16.8560 O.co2 113  ASP113     -0.2456
    147  OD2        6.5190    6.8420   16.9210 O.co2 113  ASP113     -0.2456
    148  N          5.6360   12.6360   14.9540 N.3   129  VAL129     -0.1231
    149  CA         7.0550   12.4330   15.2310 C.3   129  VAL129      0.1692
    150  C          7.9040   12.3900   13.9660 C.2   129  VAL129      0.2592
    151  O          9.1340   12.3590   14.0330 O.2   129  VAL129     -0.2718
    152  CB         7.2850   11.1090   16.0190 C.3   129  VAL129      0.0266
    153  CG1        6.6280   11.1860   17.3950 C.3   129  VAL129      0.0020
    154  CG2        6.7290    9.9320   15.2320 C.3   129  VAL129      0.0020
    155  N          7.2510   12.4030   12.8110 N.am  130  HIS130     -0.1962
    156  CA         7.9750   12.3280   11.5570 C.3   130  HIS130      0.1787
    157  C          7.0830   12.7180   10.3800 C.2   130  HIS130      0.2620
    158  O          5.9000   12.3790   10.3440 O.2   130  HIS130     -0.2715
    159  CB         8.8630   11.0220   11.4450 C.3   130  HIS130      0.0785
    160  CG         8.9440   10.4970   10.0440 C.ar  130  HIS130      0.0821
    161  ND1       10.0630   10.6570    9.2530 N.ar  130  HIS130     -0.2267
    162  CD2        8.0290    9.8620    9.2740 C.ar  130  HIS130      0.1154
    163  CE1        9.8330   10.1450    8.0560 C.ar  130  HIS130      0.1986
    164  NE2        8.6060    9.6550    8.0420 N.ar  130  HIS130     -0.2212
    165  N          7.6500   13.4810    9.4470 N.am  131  LEU131     -0.1963
    166  CA         6.9410   13.8980    8.2360 C.3   131  LEU131      0.1728
    167  C          7.3460   12.8660    7.1910 C.2   131  LEU131      0.2616
    168  O          8.4840   12.8510    6.7290 O.2   131  LEU131     -0.2715
    169  CB         7.3800   15.2980    7.7900 C.3   131  LEU131      0.0311
    170  CG         6.7080   15.8080    6.5100 C.3   131  LEU131      0.0022
    171  CD1        5.1970   15.7410    6.6740 C.3   131  LEU131      0.0001
    172  CD2        7.1420   17.2340    6.2140 C.3   131  LEU131      0.0001
    173  N          6.4150   11.9970    6.8220 N.am  132  ASP132     -0.1971
    174  CA         6.7240   10.9390    5.8760 C.3   132  ASP132      0.1709
    175  C          6.6470   11.3410    4.4110 C.2   132  ASP132      0.2293
    176  O          7.4120   10.8290    3.5890 O.2   132  ASP132     -0.2864
    177  CB         5.8230    9.7260    6.1490 C.3   132  ASP132      0.1436
    178  CG         6.3670    8.4490    5.5420 C.2   132  ASP132      0.3671
    179  OD1        6.0190    8.1360    4.3840 O.co2 132  ASP132     -0.2456
    180  OD2        7.1550    7.7620    6.2270 O.co2 132  ASP132     -0.2456
@<TRIPOS>BOND
     1   102   103    1
     2   103   104    1
     3   103   106    1
     4   105   104    2
     5   176   175    2
     6   104   108   am
     7    99    98    2
     8   106   107    1
     9    90    89    2
    10    98    97    1
    11   179   178   ar
    12    89    88    1
    13   175   174    1
    14   108   109    1
    15   110   109    1
    16   110   111    2
    17   109   112    1
    18   178   177    1
    19   178   180   ar
    20    97    96    1
    21    97   100    1
    22    88    87    1
    23    88    91    1
    24   174   177    1
    25   174   173    1
    26   172   170    1
    27    92    91    1
    28    92    93    1
    29   170   171    1
    30   170   169    1
    31   100   101    1
    32   112   113    1
    33   168   167    2
    34   173   167   am
    35   114   113    2
    36   113   115   am
    37   167   166    1
    38    94    93    1
    39    94    95    1
    40   169   166    1
    41    85    84    1
    42   119   118    2
    43   164   163   ar
    44   164   162   ar
    45   163   161   ar
    46   166   165    1
    47    65    63   ar
    48    65    66   ar
    49    63    62   ar
    50   116   117    1
    51    81    80    1
    52    81    82    1
    53    84    86    1
    54    84    83    2
    55    78    79    2
    56    78    77    1
    57    83    82    1
    58    80    77    1
    59   118   117    1
    60   161   160   ar
    61   162   160   ar
    62    66    64   ar
    63    77    76    1
    64   117   120    1
    65   165   157   am
    66    62    61    1
    67    62    64   ar
    68   120   121    1
    69    60    59    2
    70    51    50    2
    71    61    58    1
    72   160   159    1
    73   121   122    1
    74    58    59    1
    75    58    57    1
    76   158   157    2
    77   157   156    1
    78   135   136    1
    79    74    73    2
    80    50    57   am
    81    50    49    1
    82    55    54    2
    83    75    73   am
    84   122   123    1
    85   139   136    1
    86   127   128    1
    87     8     7    1
    88    45    47   ar
    89    45    43   ar
    90    73    72    1
    91   136   137    1
    92   159   156    1
    93   129   130    2
    94   129   128    1
    95    54    56   am
    96    54    53    1
    97    52    49    1
    98    52    53    1
    99   156   155    1
   100    47    46   ar
   101   133   132    2
   102    49    48    1
   103   128   131    1
   104     7     6    1
   105     1     2    1
   106    43    42   ar
   107   123   124    2
   108    71    72    1
   109    71    68    1
   110    46    44   ar
   111   155   150   am
   112   137   138    2
   113   132   131    1
   114   132   134   am
   115   126   124    1
   116    70    69    2
   117   124   125    1
   118    40    39    2
   119    69    68    1
   120    42    44   ar
   121    42    41    1
   122     2     5    1
   123     2     3    1
   124    68    67    1
   125     6     5    1
   126   150   151    2
   127   150   149    1
   128    34    32   ar
   129    34    36   ar
   130    31    32   ar
   131    31    29   ar
   132     4     3    2
   133    39    38    1
   134    38    41    1
   135    38    37    1
   136    32    30   ar
   137    36    35   ar
   138    26    25    2
   139    29    28   ar
   140   148   149    1
   141   149   152    1
   142   154   152    1
   143    30    28   ar
   144    30    33   ar
   145    37    25   am
   146    21    22   ar
   147    21    19   ar
   148    25    24    1
   149    35    33   ar
   150    28    27    1
   151   152   153    1
   152    22    20   ar
   153    19    16   ar
   154   146   145   ar
   155    27    24    1
   156   147   145   ar
   157    24    23    1
   158   140   141    1
   159    12    11    2
   160    20    18   ar
   161   145   144    1
   162    16    18   ar
   163    16    14   ar
   164    18    17   ar
   165   141   144    1
   166   141   142    1
   167    11    10    1
   168    13    14    1
   169    13    10    1
   170    14    15   ar
   171    10     9    1
   172    17    15   ar
   173   142   143    2
