@<TRIPOS>MOLECULE
tmp/2c0kA00.pdb
 223 217 0 0 0
SMALL
GASTEIGER

@<TRIPOS>ATOM
      1  N        -10.4010   11.3060   -7.7170 N.3    31  TYR31      -0.1241
      2  CA        -9.2510   11.9310   -7.1180 C.3    31  TYR31       0.1605
      3  C         -9.5470   13.3900   -6.7030 C.2    31  TYR31       0.2264
      4  O         -9.2110   13.8070   -5.5900 O.2    31  TYR31      -0.2867
      5  CB        -8.0840   11.8730   -8.0920 C.3    31  TYR31       0.0534
      6  CG        -6.8090   12.5330   -7.6310 C.ar   31  TYR31      -0.0201
      7  CD1       -6.1170   12.0590   -6.5120 C.ar   31  TYR31      -0.0009
      8  CD2       -6.2160   13.5690   -8.3920 C.ar   31  TYR31      -0.0009
      9  CE1       -4.8880   12.6260   -6.1220 C.ar   31  TYR31       0.0417
     10  CE2       -5.0000   14.1470   -8.0040 C.ar   31  TYR31       0.0417
     11  CZ        -4.3330   13.6550   -6.8810 C.ar   31  TYR31       0.1957
     12  OH        -3.1190   14.1960   -6.5160 O.3    31  TYR31      -0.2866
     13  N         -5.8780   19.1290   -4.4560 N.3    38  ASN38      -0.1240
     14  CA        -4.9810   18.8280   -5.5910 C.3    38  ASN38       0.1653
     15  C         -5.4210   19.5120   -6.8950 C.2    38  ASN38       0.2266
     16  O         -4.6800   19.5190   -7.8940 O.2    38  ASN38      -0.2867
     17  CB        -4.8820   17.3090   -5.8010 C.3    38  ASN38       0.1155
     18  CG        -4.1060   16.6100   -4.6840 C.2    38  ASN38       0.2627
     19  OD1       -4.6240   15.6890   -4.0200 O.2    38  ASN38      -0.2716
     20  ND2       -2.8690   17.0220   -4.4840 N.am   38  ASN38      -0.0877
     21  N         -3.2520   22.4640   -8.4670 N.3    41  HIS41      -0.1226
     22  CA        -2.1150   22.1890   -9.3410 C.3    41  HIS41       0.1752
     23  C         -2.5430   22.2210  -10.7710 C.2    41  HIS41       0.2596
     24  O         -1.7120   22.2930  -11.6700 O.2    41  HIS41      -0.2718
     25  CB        -1.5020   20.8190   -9.0210 C.3    41  HIS41       0.0759
     26  CG        -0.6820   20.8020   -7.7740 C.ar   41  HIS41       0.0818
     27  ND1        0.5930   21.3280   -7.7140 N.ar   41  HIS41      -0.2268
     28  CD2       -0.9670   20.3620   -6.5250 C.ar   41  HIS41       0.1154
     29  CE1        1.0630   21.1990   -6.4860 C.ar   41  HIS41       0.1986
     30  NE2        0.1360   20.6180   -5.7440 N.ar   41  HIS41      -0.2212
     31  N         -3.8580   22.1390  -10.9850 N.am   42  PHE42      -0.1976
     32  CA        -4.4350   22.1400  -12.3210 C.3    42  PHE42       0.1639
     33  C         -5.4150   23.3180  -12.4880 C.2    42  PHE42       0.2290
     34  O         -6.6410   23.1050  -12.5950 O.2    42  PHE42      -0.2864
     35  CB        -5.1900   20.8210  -12.5800 C.3    42  PHE42       0.0560
     36  CG        -4.3440   19.5880  -12.4290 C.ar   42  PHE42      -0.0200
     37  CD1       -4.1580   19.0040  -11.1840 C.ar   42  PHE42      -0.0042
     38  CD2       -3.8300   18.9520  -13.5350 C.ar   42  PHE42      -0.0042
     39  CE1       -3.4100   17.8360  -11.0490 C.ar   42  PHE42      -0.0003
     40  CE2       -3.0760   17.7730  -13.3990 C.ar   42  PHE42      -0.0003
     41  CZ        -2.8740   17.2270  -12.1640 C.ar   42  PHE42      -0.0000
     42  N         -6.5090   25.2030  -14.8450 N.3    44  TRP44      -0.1241
     43  CA        -7.4820   25.0750  -15.9340 C.3    44  TRP44       0.1605
     44  C         -8.7040   24.2140  -15.5710 C.2    44  TRP44       0.2264
     45  O         -9.7940   24.4210  -16.1050 O.2    44  TRP44      -0.2867
     46  CB        -6.8110   24.5420  -17.2040 C.3    44  TRP44       0.0550
     47  CG        -5.7940   23.4380  -16.9570 C.ar   44  TRP44       0.0003
     48  CD1       -5.9710   22.0910  -17.1610 C.ar   44  TRP44       0.0946
     49  CD2       -4.4400   23.5970  -16.4900 C.ar   44  TRP44       0.0152
     50  NE1       -4.8210   21.4100  -16.8390 N.ar   44  TRP44      -0.2442
     51  CE2       -3.8630   22.3050  -16.4350 C.ar   44  TRP44       0.0810
     52  CE3       -3.6630   24.7040  -16.1090 C.ar   44  TRP44       0.0012
     53  CZ2       -2.5350   22.0860  -16.0180 C.ar   44  TRP44       0.0191
     54  CZ3       -2.3280   24.4820  -15.6970 C.ar   44  TRP44       0.0001
     55  CH2       -1.7910   23.1830  -15.6520 C.ar   44  TRP44       0.0015
     56  N         -9.5010   18.0910  -22.6810 N.3    58  ARG58      -0.1245
     57  CA        -8.2020   18.1240  -22.0520 C.3    58  ARG58       0.1563
     58  C         -8.1850   17.1960  -20.8270 C.2    58  ARG58       0.2260
     59  O         -7.1380   16.7240  -20.4040 O.2    58  ARG58      -0.2867
     60  CB        -7.8590   19.5510  -21.6490 C.3    58  ARG58       0.0307
     61  CG        -6.5460   19.6950  -20.9420 C.3    58  ARG58       0.0489
     62  CD        -6.2510   21.1450  -20.6330 C.3    58  ARG58       0.2205
     63  NE        -4.8470   21.3360  -20.2980 N.pl3  58  ARG58      -0.0865
     64  CZ        -4.2740   22.5130  -20.1230 C.cat  58  ARG58       0.5346
     65  NH1       -4.9910   23.6320  -20.2370 N.pl3  58  ARG58       0.1354
     66  NH2       -2.9870   22.5780  -19.8170 N.pl3  58  ARG58       0.1354
     67  N         -5.8300   13.8900  -20.5100 N.3    62  HIS62      -0.1241
     68  CA        -4.8310   13.9010  -19.4560 C.3    62  HIS62       0.1621
     69  C         -4.9000   12.6320  -18.6030 C.2    62  HIS62       0.2264
     70  O         -3.8640   12.0780  -18.2200 O.2    62  HIS62      -0.2867
     71  CB        -4.9640   15.1230  -18.5840 C.3    62  HIS62       0.0745
     72  CG        -3.8880   15.2390  -17.5660 C.ar   62  HIS62       0.0817
     73  ND1       -2.5600   15.3780  -17.9060 N.ar   62  HIS62      -0.2268
     74  CD2       -3.9260   15.1630  -16.2160 C.ar   62  HIS62       0.1154
     75  CE1       -1.8300   15.4320  -16.8040 C.ar   62  HIS62       0.1986
     76  NE2       -2.6360   15.3060  -15.7650 N.ar   62  HIS62      -0.2212
     77  N         -3.1320    9.9100  -20.5150 N.3    65  ARG65      -0.1231
     78  CA        -1.6760   10.0480  -20.4960 C.3    65  ARG65       0.1694
     79  C         -1.0160    9.5940  -19.1670 C.2    65  ARG65       0.2591
     80  O          0.0650    9.0460  -19.1810 O.2    65  ARG65      -0.2718
     81  CB        -1.2330   11.4740  -20.8650 C.3    65  ARG65       0.0321
     82  CG        -1.5690   11.8720  -22.2800 C.3    65  ARG65       0.0489
     83  CD        -0.3340   12.2890  -23.0500 C.3    65  ARG65       0.2205
     84  NE        -0.6740   13.0560  -24.2590 N.pl3  65  ARG65      -0.0865
     85  CZ        -0.8470   14.3790  -24.2830 C.cat  65  ARG65       0.5346
     86  NH1       -0.7260   15.0970  -23.1560 N.pl3  65  ARG65       0.1354
     87  NH2       -1.1460   14.9900  -25.4240 N.pl3  65  ARG65       0.1354
     88  N         -1.6750    9.8570  -18.0250 N.am   66  ILE66      -0.1980
     89  CA        -1.1830    9.3400  -16.7110 C.3    66  ILE66       0.1595
     90  C         -1.0840    7.7960  -16.7400 C.2    66  ILE66       0.2287
     91  O         -0.0430    7.2200  -16.4000 O.2    66  ILE66      -0.2864
     92  CB        -2.0860    9.7830  -15.5080 C.3    66  ILE66       0.0276
     93  CG1       -2.0910   11.3120  -15.3790 C.3    66  ILE66       0.0022
     94  CG2       -1.5890    9.1540  -14.2180 C.3    66  ILE66       0.0022
     95  CD1       -2.8570   11.8480  -14.1680 C.3    66  ILE66       0.0001
     96  N          1.6670    6.1540  -19.1830 N.3    69  GLN69      -0.1231
     97  CA         2.9850    6.1070  -18.5420 C.3    69  GLN69       0.1698
     98  C          3.0730    5.0160  -17.4620 C.2    69  GLN69       0.2592
     99  O          4.0490    4.3030  -17.3950 O.2    69  GLN69      -0.2718
    100  CB         3.3790    7.4560  -17.9740 C.3    69  GLN69       0.0381
    101  CG         4.5940    7.3900  -17.0800 C.3    69  GLN69       0.0905
    102  CD         5.4280    8.6640  -17.1060 C.2    69  GLN69       0.2608
    103  OE1        6.6510    8.6080  -17.0930 O.2    69  GLN69      -0.2717
    104  NE2        4.7620    9.8180  -17.1060 N.am   69  GLN69      -0.0878
    105  N          2.0270    4.8780  -16.6470 N.am   70  VAL70      -0.1980
    106  CA         1.9300    3.7280  -15.7340 C.3    70  VAL70       0.1595
    107  C          2.0820    2.3890  -16.5090 C.2    70  VAL70       0.2287
    108  O          2.7680    1.4660  -16.0420 O.2    70  VAL70      -0.2864
    109  CB         0.5850    3.7190  -14.9300 C.3    70  VAL70       0.0276
    110  CG1        0.3930    2.3730  -14.2080 C.3    70  VAL70       0.0022
    111  CG2        0.5430    4.8690  -13.9460 C.3    70  VAL70       0.0022
    112  N         10.4880    6.3740  -14.5710 N.3    90  TRP90      -0.1241
    113  CA        10.1990    7.2090  -13.4500 C.3    90  TRP90       0.1605
    114  C         11.2430    8.2690  -13.2870 C.2    90  TRP90       0.2264
    115  O         11.0190    9.2710  -12.6070 O.2    90  TRP90      -0.2867
    116  CB        10.0480    6.3700  -12.1720 C.3    90  TRP90       0.0550
    117  CG         9.1250    5.2260  -12.3420 C.ar   90  TRP90       0.0003
    118  CD1        9.4550    3.9020  -12.3520 C.ar   90  TRP90       0.0946
    119  CD2        7.7210    5.2910  -12.6160 C.ar   90  TRP90       0.0152
    120  NE1        8.3350    3.1320  -12.5830 N.ar   90  TRP90      -0.2442
    121  CE2        7.2560    3.9590  -12.7430 C.ar   90  TRP90       0.0810
    122  CE3        6.8040    6.3440  -12.7470 C.ar   90  TRP90       0.0012
    123  CZ2        5.9080    3.6520  -12.9980 C.ar   90  TRP90       0.0191
    124  CZ3        5.4540    6.0360  -12.9920 C.ar   90  TRP90       0.0001
    125  CH2        5.0240    4.7040  -13.1130 C.ar   90  TRP90       0.0015
    126  N          9.4140   10.8050  -15.3630 N.3    93  LEU93      -0.1245
    127  CA         8.4740   11.5630  -14.5290 C.3    93  LEU93       0.1561
    128  C          9.2170   12.6590  -13.7400 C.2    93  LEU93       0.2260
    129  O          8.7900   13.8190  -13.7160 O.2    93  LEU93      -0.2867
    130  CB         7.7130   10.6260  -13.5700 C.3    93  LEU93       0.0270
    131  CG         6.6870   11.2690  -12.6250 C.3    93  LEU93       0.0019
    132  CD1        5.3340   11.2870  -13.2680 C.3    93  LEU93       0.0001
    133  CD2        6.6300   10.5230  -11.2810 C.3    93  LEU93       0.0001
    134  N          9.7190   15.7220  -15.7610 N.3    96  THR96      -0.1203
    135  CA         8.4830   16.3330  -16.2270 C.3    96  THR96       0.1994
    136  C          7.7460   17.0550  -15.0840 C.2    96  THR96       0.2617
    137  O          7.0300   18.0410  -15.3150 O.2    96  THR96      -0.2717
    138  CB         7.5520   15.2760  -16.8860 C.3    96  THR96       0.1784
    139  OG1        7.8750   15.1590  -18.2690 O.3    96  THR96      -0.2211
    140  CG2        6.1140   15.6710  -16.7610 C.3    96  THR96       0.0376
    141  N          7.9630   16.5890  -13.8510 N.am   97  HIS97      -0.1975
    142  CA         7.1650   17.0390  -12.7040 C.3    97  HIS97       0.1656
    143  C          7.9550   17.9150  -11.7400 C.2    97  HIS97       0.2291
    144  O          7.3770   18.5900  -10.8900 O.2    97  HIS97      -0.2864
    145  CB         6.5540   15.8390  -11.9640 C.3    97  HIS97       0.0771
    146  CG         5.3080   15.3130  -12.5990 C.ar   97  HIS97       0.0820
    147  ND1        5.3050   14.6890  -13.8270 N.ar   97  HIS97      -0.2267
    148  CD2        4.0150   15.3440  -12.1920 C.ar   97  HIS97       0.1154
    149  CE1        4.0690   14.3340  -14.1390 C.ar   97  HIS97       0.1986
    150  NE2        3.2680   14.7140  -13.1630 N.ar   97  HIS97      -0.2212
    151  N          6.9640   21.8670  -11.0110 N.3   100  LYS100     -0.1245
    152  CA         6.0320   22.1190   -9.9200 C.3   100  LYS100      0.1561
    153  C          6.5920   21.5660   -8.6450 C.2   100  LYS100      0.2260
    154  O          7.3320   20.5900   -8.6570 O.2   100  LYS100     -0.2867
    155  CB         4.6710   21.5060  -10.2010 C.3   100  LYS100      0.0271
    156  CG         3.5490   22.0150   -9.2450 C.3   100  LYS100      0.0035
    157  CD         2.5630   22.9990   -9.9520 C.3   100  LYS100      0.0206
    158  CE         2.9690   24.4970   -9.7140 C.3   100  LYS100      0.1093
    159  NZ         1.7760   25.4240   -9.7290 N.3   100  LYS100     -0.1314
    160  N          4.9680   19.7990   -6.4810 N.3   102  VAL102     -0.1245
    161  CA         4.0070   18.8400   -5.9840 C.3   102  VAL102      0.1561
    162  C          4.6760   17.9930   -4.9390 C.2   102  VAL102      0.2260
    163  O          5.7050   17.4040   -5.1960 O.2   102  VAL102     -0.2867
    164  CB         3.4820   17.9140   -7.1090 C.3   102  VAL102      0.0252
    165  CG1        2.4900   16.9100   -6.5430 C.3   102  VAL102      0.0019
    166  CG2        2.8370   18.7400   -8.2520 C.3   102  VAL102      0.0019
    167  N          0.7610   14.1920   -2.2940 N.3   106  SER106     -0.1202
    168  CA        -0.1510   14.3000   -3.4330 C.3   106  SER106      0.2020
    169  C         -0.0700   13.0680   -4.3420 C.2   106  SER106      0.2618
    170  O         -1.0810   12.6450   -4.9210 O.2   106  SER106     -0.2717
    171  CB         0.1690   15.5550   -4.2440 C.3   106  SER106      0.2103
    172  OG        -0.4470   16.6990   -3.6900 O.3   106  SER106     -0.2182
    173  N          1.1440   12.5120   -4.4780 N.am  107  TYR107     -0.1975
    174  CA         1.3650   11.3060   -5.2650 C.3   107  TYR107      0.1639
    175  C          0.8050   10.0810   -4.5470 C.2   107  TYR107      0.2290
    176  O          0.2370    9.1780   -5.1810 O.2   107  TYR107     -0.2864
    177  CB         2.8460   11.1080   -5.5200 C.3   107  TYR107      0.0560
    178  CG         3.4880   12.1540   -6.4150 C.ar  107  TYR107     -0.0198
    179  CD1        4.0220   13.3270   -5.8780 C.ar  107  TYR107     -0.0009
    180  CD2        3.6140   11.9400   -7.7750 C.ar  107  TYR107     -0.0009
    181  CE1        4.6540   14.2540   -6.6760 C.ar  107  TYR107      0.0417
    182  CE2        4.2430   12.8640   -8.5940 C.ar  107  TYR107      0.0417
    183  CZ         4.7640   14.0160   -8.0410 C.ar  107  TYR107      0.1957
    184  OH         5.3900   14.9210   -8.8400 O.3   107  TYR107     -0.2866
    185  N         -2.9490    9.8130   -5.0240 N.3   110  LEU110     -0.1245
    186  CA        -3.3090    9.3330   -6.3790 C.3   110  LEU110      0.1561
    187  C         -3.1470    7.8030   -6.4860 C.2   110  LEU110      0.2260
    188  O         -4.0250    7.1090   -7.0000 O.2   110  LEU110     -0.2867
    189  CB        -2.4700   10.0680   -7.4690 C.3   110  LEU110      0.0270
    190  CG        -2.8150    9.7480   -8.9450 C.3   110  LEU110      0.0019
    191  CD1       -4.2470   10.0500   -9.2360 C.3   110  LEU110      0.0001
    192  CD2       -1.8830   10.4980   -9.9330 C.3   110  LEU110      0.0001
    193  N         -5.7950    5.2660   -7.9750 N.3   114  ILE114     -0.1245
    194  CA        -5.4650    4.3460   -9.0870 C.3   114  ILE114      0.1561
    195  C         -5.6970    2.9360   -8.6400 C.2   114  ILE114      0.2260
    196  O         -6.3400    2.1300   -9.3490 O.2   114  ILE114     -0.2867
    197  CB        -3.9970    4.4660   -9.5470 C.3   114  ILE114      0.0252
    198  CG1       -3.7620    5.7930  -10.2520 C.3   114  ILE114      0.0019
    199  CG2       -3.6480    3.3160  -10.4780 C.3   114  ILE114      0.0019
    200  CD1       -2.2930    6.1820  -10.3510 C.3   114  ILE114      0.0001
    201  N          4.0950    1.1810   -6.7290 N.3   136  PHE136     -0.1241
    202  CA         4.0090    2.6400   -6.7930 C.3   136  PHE136      0.1605
    203  C          4.9410    3.3110   -5.8020 C.2   136  PHE136      0.2264
    204  O          5.5800    4.3300   -6.1360 O.2   136  PHE136     -0.2867
    205  CB         2.5800    3.1170   -6.6050 C.3   136  PHE136      0.0534
    206  CG         1.7630    3.0990   -7.8650 C.ar  136  PHE136     -0.0203
    207  CD1        1.9510    4.0710   -8.8510 C.ar  136  PHE136     -0.0042
    208  CD2        0.7800    2.1400   -8.0550 C.ar  136  PHE136     -0.0042
    209  CE1        1.1850    4.0660  -10.0060 C.ar  136  PHE136     -0.0003
    210  CE2        0.0000    2.1300   -9.2280 C.ar  136  PHE136     -0.0003
    211  CZ         0.1990    3.0860  -10.1910 C.ar  136  PHE136     -0.0000
    212  N          7.6990    5.9520   -7.0530 N.3   140  TYR140     -0.1241
    213  CA         7.7850    7.2590   -6.3640 C.3   140  TYR140      0.1605
    214  C          9.1530    7.4690   -5.6920 C.2   140  TYR140      0.2264
    215  O          9.6860    8.5820   -5.6740 O.2   140  TYR140     -0.2867
    216  CB         6.6450    7.4130   -5.3300 C.3   140  TYR140      0.0534
    217  CG         5.2370    7.5520   -5.9480 C.ar  140  TYR140     -0.0201
    218  CD1        4.0780    7.2790   -5.1890 C.ar  140  TYR140     -0.0009
    219  CD2        5.0720    7.9430   -7.2680 C.ar  140  TYR140     -0.0009
    220  CE1        2.8060    7.4130   -5.7440 C.ar  140  TYR140      0.0417
    221  CE2        3.7910    8.0650   -7.8380 C.ar  140  TYR140      0.0417
    222  CZ         2.6770    7.8080   -7.0780 C.ar  140  TYR140      0.1957
    223  OH         1.4320    7.9510   -7.6450 O.3   140  TYR140     -0.2866
@<TRIPOS>BOND
     1    87    85    1
     2    85    84    2
     3    85    86    1
     4    84    83    1
     5    83    82    1
     6    56    57    1
     7    82    81    1
     8    57    60    1
     9    57    58    1
    10    60    61    1
    11    61    62    1
    12    81    78    1
    13    58    59    2
    14    62    63    1
    15    77    78    1
    16    67    68    1
    17    78    79    1
    18    63    64    2
    19    65    64    1
    20    64    66    1
    21    68    69    1
    22    68    71    1
    23    96    97    1
    24    80    79    2
    25    79    88   am
    26    69    70    2
    27    71    72    1
    28    97   100    1
    29    97    98    1
    30   139   138    1
    31    88    89    1
    32   100   101    1
    33    73    72   ar
    34    73    75   ar
    35    72    74   ar
    36    98    99    2
    37    98   105   am
    38    46    47    1
    39    46    43    1
    40    48    47   ar
    41    48    50   ar
    42   102   104   am
    43   102   103    2
    44   102   101    1
    45    47    49   ar
    46   138   140    1
    47   138   135    1
    48    50    51   ar
    49    75    76   ar
    50    90    89    1
    51    90    91    2
    52    89    92    1
    53   105   106    1
    54   107   108    2
    55   107   106    1
    56    49    51   ar
    57    49    52   ar
    58    51    53   ar
    59   135   134    1
    60   135   136    1
    61    74    76   ar
    62    52    54   ar
    63    45    44    2
    64    53    55   ar
    65    43    44    1
    66    43    42    1
    67   106   109    1
    68    54    55   ar
    69    92    93    1
    70    92    94    1
    71    93    95    1
    72   126   127    1
    73   137   136    2
    74   136   141   am
    75   109   110    1
    76   109   111    1
    77   112   113    1
    78   127   128    1
    79   127   130    1
    80   149   147   ar
    81   149   150   ar
    82   141   142    1
    83   147   146   ar
    84   128   129    2
    85   130   131    1
    86    38    40   ar
    87    38    36   ar
    88   113   114    1
    89   113   116    1
    90    40    41   ar
    91   114   115    2
    92   132   131    1
    93   150   148   ar
    94   125   123   ar
    95   125   124   ar
    96   123   121   ar
    97   124   122   ar
    98   122   119   ar
    99   121   119   ar
   100   121   120   ar
   101   142   145    1
   102   142   143    1
   103   131   133    1
   104   119   117   ar
   105   146   148   ar
   106   146   145    1
   107    34    33    2
   108   120   118   ar
   109    35    36    1
   110    35    32    1
   111    33    32    1
   112    36    37   ar
   113   118   117   ar
   114   117   116    1
   115    32    31    1
   116    41    39   ar
   117   143   144    2
   118    24    23    2
   119    37    39   ar
   120   151   152    1
   121    31    23   am
   122    23    22    1
   123   199   197    1
   124   200   198    1
   125   198   197    1
   126   155   152    1
   127   155   156    1
   128   211   209   ar
   129   211   210   ar
   130   209   207   ar
   131   157   158    1
   132   157   156    1
   133   192   190    1
   134   152   153    1
   135   159   158    1
   136   197   194    1
   137   196   195    2
   138    22    25    1
   139    22    21    1
   140   191   190    1
   141   210   208   ar
   142   194   195    1
   143   194   193    1
   144    25    26    1
   145   190   189    1
   146   207   206   ar
   147   184   183    1
   148   154   153    2
   149   182   183   ar
   150   182   180   ar
   151     8    10   ar
   152     8     6   ar
   153   166   164    1
   154     5     6    1
   155     5     2    1
   156   208   206   ar
   157   183   181   ar
   158    10    11   ar
   159    16    15    2
   160   206   205    1
   161   221   219   ar
   162   221   222   ar
   163   180   178   ar
   164    26    27   ar
   165    26    28   ar
   166     1     2    1
   167    27    29   ar
   168   223   222    1
   169     6     7   ar
   170   189   186    1
   171   219   217   ar
   172     2     3    1
   173   164   165    1
   174   164   161    1
   175   222   220   ar
   176   212   213    1
   177   188   187    2
   178    15    14    1
   179    11    12    1
   180    11     9   ar
   181   202   201    1
   182   202   205    1
   183   202   203    1
   184     3     4    2
   185   181   179   ar
   186    28    30   ar
   187     7     9   ar
   188    29    30   ar
   189   187   186    1
   190   160   161    1
   191   178   179   ar
   192   178   177    1
   193   186   185    1
   194   213   214    1
   195   213   216    1
   196   204   203    2
   197   161   162    1
   198   217   216    1
   199   217   218   ar
   200    17    14    1
   201    17    18    1
   202   220   218   ar
   203   214   215    2
   204    14    13    1
   205   177   174    1
   206   174   175    1
   207   174   173    1
   208   163   162    2
   209   176   175    2
   210   170   169    2
   211    18    20   am
   212    18    19    2
   213   173   169   am
   214   169   168    1
   215   171   172    1
   216   171   168    1
   217   168   167    1
