@<TRIPOS>MOLECULE
tmp/2c0oA00.pdb
 213 200 0 0 0
SMALL
GASTEIGER

@<TRIPOS>ATOM
      1  N          2.8200   58.7590    5.6680 N.3   189  LEU189     -0.1231
      2  CA         3.8950   58.4430    6.5610 C.3   189  LEU189      0.1693
      3  C          3.5160   57.2720    7.3940 C.2   189  LEU189      0.2592
      4  O          4.3490   56.4220    7.6850 O.2   189  LEU189     -0.2718
      5  CB         4.2600   59.6360    7.4170 C.3   189  LEU189      0.0284
      6  CG         4.8020   60.8310    6.6250 C.3   189  LEU189      0.0019
      7  CD1        4.9580   62.0490    7.4950 C.3   189  LEU189      0.0001
      8  CD2        6.1290   60.5020    5.9290 C.3   189  LEU189      0.0001
      9  N          2.2490   57.1980    7.7560 N.am  190  GLY190     -0.1957
     10  CA         1.7830   56.1550    8.6510 C.3   190  GLY190      0.1869
     11  C          0.3050   56.0050    8.4380 C.2   190  GLY190      0.2309
     12  O         -0.3310   56.8450    7.8180 O.2   190  GLY190     -0.2863
     13  N         -1.3450   59.5130    8.4760 N.3   197  VAL197     -0.1245
     14  CA        -0.5740   60.7420    8.6230 C.3   197  VAL197      0.1561
     15  C          0.2440   60.9100    7.3680 C.2   197  VAL197      0.2260
     16  O          0.9630   59.9940    6.9860 O.2   197  VAL197     -0.2867
     17  CB         0.3910   60.6900    9.8000 C.3   197  VAL197      0.0252
     18  CG1        1.3890   61.7990    9.6890 C.3   197  VAL197      0.0019
     19  CG2       -0.3430   60.7860   11.0920 C.3   197  VAL197      0.0019
     20  N          2.4160   68.3370    8.4840 N.3   209  ALA209     -0.1231
     21  CA         1.8960   66.9900    8.6460 C.3   209  ALA209      0.1694
     22  C          0.3520   67.0700    8.6840 C.2   209  ALA209      0.2592
     23  O         -0.2190   68.0770    9.1740 O.2   209  ALA209     -0.2718
     24  CB         2.4050   66.4310    9.8870 C.3   209  ALA209      0.0304
     25  N         -0.3240   66.0570    8.1350 N.am  210  VAL210     -0.1966
     26  CA        -1.7850   66.0440    8.1680 C.3   210  VAL210      0.1727
     27  C         -2.2840   64.7130    8.6820 C.2   210  VAL210      0.2616
     28  O         -1.9860   63.6860    8.0980 O.2   210  VAL210     -0.2715
     29  CB        -2.4340   66.2900    6.7860 C.3   210  VAL210      0.0290
     30  CG1       -3.9320   66.3670    6.9150 C.3   210  VAL210      0.0023
     31  CG2       -1.9560   67.5590    6.1690 C.3   210  VAL210      0.0023
     32  N         -3.0420   64.7270    9.7690 N.am  211  LYS211     -0.1977
     33  CA        -3.7270   63.5280   10.2000 C.3   211  LYS211      0.1596
     34  C         -5.1360   63.5620    9.6640 C.2   211  LYS211      0.2287
     35  O         -5.8650   64.5310    9.8780 O.2   211  LYS211     -0.2864
     36  CB        -3.7400   63.4040   11.7120 C.3   211  LYS211      0.0298
     37  CG        -4.6050   62.2750   12.2410 C.3   211  LYS211      0.0038
     38  CD        -4.0810   61.7220   13.5810 C.3   211  LYS211      0.0206
     39  CE        -2.5650   61.3740   13.4800 C.3   211  LYS211      0.1093
     40  NZ        -1.8200   61.0900   14.7720 N.3   211  LYS211     -0.1314
     41  N        -15.9220   66.2820   17.7850 N.3   223  PHE223     -0.1241
     42  CA       -14.4870   66.2140   17.5100 C.3   223  PHE223      0.1605
     43  C        -13.8660   67.5970   17.4150 C.2   223  PHE223      0.2264
     44  O        -12.8310   67.8560   18.0140 O.2   223  PHE223     -0.2867
     45  CB       -14.2300   65.4310   16.2260 C.3   223  PHE223      0.0534
     46  CG       -12.8110   65.0540   16.0450 C.ar  223  PHE223     -0.0203
     47  CD1      -12.2940   63.9220   16.6780 C.ar  223  PHE223     -0.0042
     48  CD2      -11.9640   65.8400   15.2650 C.ar  223  PHE223     -0.0042
     49  CE1      -10.9260   63.5660   16.5410 C.ar  223  PHE223     -0.0003
     50  CE2      -10.6030   65.5030   15.1190 C.ar  223  PHE223     -0.0003
     51  CZ       -10.0870   64.3560   15.7530 C.ar  223  PHE223     -0.0000
     52  N        -13.3270   69.4910   20.7330 N.3   226  GLU226     -0.1231
     53  CA       -12.0960   69.0680   21.3620 C.3   226  GLU226      0.1699
     54  C        -10.8250   69.6800   20.7030 C.2   226  GLU226      0.2592
     55  O         -9.9340   70.1890   21.3820 O.2   226  GLU226     -0.2718
     56  CB       -12.0690   67.5380   21.3960 C.3   226  GLU226      0.0402
     57  CG       -10.9220   66.9510   22.2360 C.3   226  GLU226      0.1161
     58  CD       -11.0760   67.2290   23.7400 C.2   226  GLU226      0.3649
     59  OE1      -10.0430   67.0720   24.4540 O.co2 226  GLU226     -0.2457
     60  OE2      -12.2250   67.5820   24.1860 O.co2 226  GLU226     -0.2457
     61  N        -10.7760   69.6440   19.3780 N.am  227  ALA227     -0.1980
     62  CA        -9.7030   70.2560   18.6270 C.3   227  ALA227      0.1597
     63  C         -9.6170   71.7330   18.9690 C.2   227  ALA227      0.2287
     64  O         -8.5360   72.2970   19.0720 O.2   227  ALA227     -0.2864
     65  CB        -9.9480   70.0690   17.1610 C.3   227  ALA227      0.0319
     66  N         -8.1450   72.3420   22.3000 N.3   230  MET230     -0.1245
     67  CA        -6.7410   71.8950   22.2750 C.3   230  MET230      0.1570
     68  C         -5.8260   72.9080   21.6370 C.2   230  MET230      0.2261
     69  O         -4.7180   73.1250   22.1110 O.2   230  MET230     -0.2867
     70  CB        -6.5760   70.5680   21.5520 C.3   230  MET230      0.0387
     71  CG        -6.9770   69.3340   22.3360 C.3   230  MET230      0.0595
     72  SD        -6.3870   69.2450   24.0400 S.3   230  MET230     -0.1393
     73  CE        -7.9510   69.4140   24.8960 C.3   230  MET230      0.0692
     74  N          3.1210   69.4750   20.1770 N.3   239  VAL239     -0.1245
     75  CA         3.1580   69.7170   18.7280 C.3   239  VAL239      0.1561
     76  C          2.2160   70.8760   18.3290 C.2   239  VAL239      0.2260
     77  O          1.0990   70.9460   18.8170 O.2   239  VAL239     -0.2867
     78  CB         2.8880   68.3980   17.9470 C.3   239  VAL239      0.0252
     79  CG1        1.5280   67.8220   18.2650 C.3   239  VAL239      0.0019
     80  CG2        3.0010   68.6050   16.4920 C.3   239  VAL239      0.0019
     81  N         -0.5320   72.8040   16.6780 N.3   241  LEU241     -0.1245
     82  CA        -1.7390   72.3730   15.9960 C.3   241  LEU241      0.1561
     83  C         -2.2530   73.5780   15.1840 C.2   241  LEU241      0.2260
     84  O         -2.8030   74.4980   15.7690 O.2   241  LEU241     -0.2867
     85  CB        -2.7520   71.9330   17.0540 C.3   241  LEU241      0.0270
     86  CG        -4.2070   71.5660   16.7470 C.3   241  LEU241      0.0019
     87  CD1       -4.3380   70.3000   15.9230 C.3   241  LEU241      0.0001
     88  CD2       -4.9160   71.3420   18.0640 C.3   241  LEU241      0.0001
     89  N         -6.4620   67.0170   10.1490 N.3   252  ILE252     -0.1245
     90  CA        -5.8140   67.8700   11.1600 C.3   252  ILE252      0.1561
     91  C         -4.3890   68.2280   10.7570 C.2   252  ILE252      0.2260
     92  O         -3.5650   67.3470   10.4590 O.2   252  ILE252     -0.2867
     93  CB        -5.7550   67.2090   12.5570 C.3   252  ILE252      0.0252
     94  CG1       -7.1560   66.8700   13.0530 C.3   252  ILE252      0.0019
     95  CG2       -5.0820   68.1100   13.5680 C.3   252  ILE252      0.0019
     96  CD1       -7.2230   65.4090   13.5340 C.3   252  ILE252      0.0001
     97  N         -0.8150   69.8090   11.6470 N.3   254  THR254     -0.1203
     98  CA         0.1680   70.2150   12.6640 C.3   254  THR254      0.1994
     99  C          1.4560   70.6120   11.9690 C.2   254  THR254      0.2618
    100  O          1.6360   70.2850   10.7880 O.2   254  THR254     -0.2717
    101  CB         0.5410   69.0650   13.6810 C.3   254  THR254      0.1784
    102  OG1        1.2920   68.0480   13.0140 O.3   254  THR254     -0.2211
    103  CG2       -0.6860   68.4670   14.3670 C.3   254  THR254      0.0376
    104  N          2.3480   71.2760   12.7000 N.am  255  GLU255     -0.1965
    105  CA         3.7160   71.5030   12.2330 C.3   255  GLU255      0.1733
    106  C          4.3320   70.1820   11.8440 C.2   255  GLU255      0.2616
    107  O          3.8890   69.1250   12.3110 O.2   255  GLU255     -0.2715
    108  CB         4.5800   72.1180   13.3060 C.3   255  GLU255      0.0429
    109  CG         4.6370   71.3320   14.6230 C.3   255  GLU255      0.1163
    110  CD         5.4360   72.0810   15.6610 C.2   255  GLU255      0.3649
    111  OE1        6.4380   72.6840   15.2630 O.co2 255  GLU255     -0.2457
    112  OE2        5.0850   72.1180   16.8560 O.co2 255  GLU255     -0.2457
    113  N          5.3390   70.2420   10.9790 N.am  256  PHE256     -0.1960
    114  CA         6.0320   69.0390   10.5370 C.3   256  PHE256      0.1771
    115  C          7.3210   68.8900   11.3070 C.2   256  PHE256      0.2619
    116  O          8.1010   69.8300   11.4390 O.2   256  PHE256     -0.2715
    117  CB         6.3320   69.0920    9.0450 C.3   256  PHE256      0.0574
    118  CG         6.9330   67.8390    8.5140 C.ar  256  PHE256     -0.0200
    119  CD1        6.1210   66.8060    8.0660 C.ar  256  PHE256     -0.0042
    120  CD2        8.3120   67.6820    8.4620 C.ar  256  PHE256     -0.0042
    121  CE1        6.6630   65.6330    7.5550 C.ar  256  PHE256     -0.0003
    122  CE2        8.8640   66.5070    7.9590 C.ar  256  PHE256     -0.0003
    123  CZ         8.0220   65.4800    7.4880 C.ar  256  PHE256     -0.0000
    124  N          7.5470   67.7020   11.8130 N.am  257  MET257     -0.1977
    125  CA         8.6320   67.5080   12.6900 C.3   257  MET257      0.1605
    126  C          9.5180   66.5990   11.9160 C.2   257  MET257      0.2287
    127  O          9.1580   65.4420   11.6730 O.2   257  MET257     -0.2864
    128  CB         8.1210   66.8510   13.9590 C.3   257  MET257      0.0413
    129  CG         7.1270   67.7130   14.7510 C.3   257  MET257      0.0598
    130  SD         8.0350   68.9960   15.5930 S.3   257  MET257     -0.1393
    131  CE         8.5710   68.1740   17.0960 C.3   257  MET257      0.0692
    132  N         10.3560   62.8530   12.7710 N.3   260  GLY260     -0.1210
    133  CA         9.2830   61.9190   13.0970 C.3   260  GLY260      0.1956
    134  C          9.1640   61.5390   14.5760 C.2   260  GLY260      0.2612
    135  O          9.3130   62.3880   15.4590 O.2   260  GLY260     -0.2717
    136  N          8.8980   60.2660   14.8550 N.am  261  SER261     -0.1952
    137  CA         8.5640   59.8680   16.1970 C.3   261  SER261      0.1924
    138  C          9.8500   59.5920   16.9050 C.2   261  SER261      0.2314
    139  O         10.8320   59.1950   16.2730 O.2   261  SER261     -0.2863
    140  CB         7.6570   58.6400   16.2080 C.3   261  SER261      0.2116
    141  OG         8.4110   57.4610   15.9390 O.3   261  SER261     -0.2180
    142  N         10.4310   57.2580   18.9600 N.3   263  LEU263     -0.1231
    143  CA        10.6500   55.8440   18.8140 C.3   263  LEU263      0.1693
    144  C         11.4360   55.5850   17.5340 C.2   263  LEU263      0.2592
    145  O         12.4100   54.8120   17.5310 O.2   263  LEU263     -0.2718
    146  CB         9.3160   55.0860   18.8200 C.3   263  LEU263      0.0284
    147  CG         9.5670   53.6040   18.6260 C.3   263  LEU263      0.0019
    148  CD1       10.0440   53.0140   19.9120 C.3   263  LEU263      0.0001
    149  CD2        8.3410   52.8850   18.1230 C.3   263  LEU263      0.0001
    150  N         11.0420   56.2480   16.4470 N.am  264  ASP264     -0.1974
    151  CA        11.7770   56.0340   15.2000 C.3   264  ASP264      0.1709
    152  C         13.2150   56.5200   15.2990 C.2   264  ASP264      0.2293
    153  O         14.1330   55.8270   14.9120 O.2   264  ASP264     -0.2864
    154  CB        11.0430   56.6170   13.9960 C.3   264  ASP264      0.1436
    155  CG         9.9390   55.7020   13.5040 C.2   264  ASP264      0.3671
    156  OD1        9.7970   54.5740   14.0610 O.co2 264  ASP264     -0.2456
    157  OD2        9.2120   56.1070   12.5640 O.co2 264  ASP264     -0.2456
    158  N          6.3410   56.5900   20.7630 N.3   306  ALA306     -0.1245
    159  CA         5.6530   56.6940   19.4850 C.3   306  ALA306      0.1562
    160  C          4.7010   57.8800   19.3880 C.2   306  ALA306      0.2260
    161  O          4.2230   58.1600   18.3060 O.2   306  ALA306     -0.2867
    162  CB         4.9360   55.4400   19.1780 C.3   306  ALA306      0.0290
    163  N          7.2540   63.6140   19.0870 N.3   309  LEU309     -0.1245
    164  CA         7.8980   63.9070   17.8050 C.3   309  LEU309      0.1561
    165  C          9.1290   64.7300   18.0440 C.2   309  LEU309      0.2260
    166  O          9.2230   65.4440   19.0440 O.2   309  LEU309     -0.2867
    167  CB         6.9680   64.6490   16.8620 C.3   309  LEU309      0.0270
    168  CG         5.6530   63.9320   16.5970 C.3   309  LEU309      0.0019
    169  CD1        4.7370   64.9610   16.0120 C.3   309  LEU309      0.0001
    170  CD2        5.8240   62.7270   15.6590 C.3   309  LEU309      0.0001
    171  N          2.8760   64.6910   20.9640 N.3   319  ALA319     -0.1231
    172  CA         1.8260   64.6650   19.9500 C.3   319  ALA319      0.1694
    173  C          0.5530   64.0820   20.5390 C.2   319  ALA319      0.2592
    174  O          0.5920   63.5660   21.6650 O.2   319  ALA319     -0.2718
    175  CB         2.2710   63.8470   18.7880 C.3   319  ALA319      0.0304
    176  N         -0.5670   64.1540   19.8090 N.am  320  ASP320     -0.1960
    177  CA        -1.7570   63.3210   20.1360 C.3   320  ASP320      0.1840
    178  C         -2.4420   63.7100   21.4480 C.2   320  ASP320      0.2622
    179  O         -3.3910   63.0490   21.9050 O.2   320  ASP320     -0.2715
    180  CB        -1.4340   61.7920   20.1560 C.3   320  ASP320      0.1450
    181  CG        -1.3890   61.1370   18.7380 C.2   320  ASP320      0.3671
    182  OD1       -1.7250   61.8160   17.7320 O.co2 320  ASP320     -0.2456
    183  OD2       -1.0320   59.9230   18.6300 O.co2 320  ASP320     -0.2456
    184  N         -1.9840   64.7900   22.0530 N.am  321  PHE321     -0.1960
    185  CA        -2.6940   65.3360   23.1940 C.3   321  PHE321      0.1771
    186  C         -4.0820   65.7680   22.7740 C.2   321  PHE321      0.2620
    187  O         -4.2370   66.6400   21.9200 O.2   321  PHE321     -0.2715
    188  CB        -1.9400   66.5220   23.7760 C.3   321  PHE321      0.0574
    189  CG        -2.6300   67.1610   24.9200 C.ar  321  PHE321     -0.0200
    190  CD1       -3.0350   66.4120   26.0100 C.ar  321  PHE321     -0.0042
    191  CD2       -2.8740   68.5080   24.9220 C.ar  321  PHE321     -0.0042
    192  CE1       -3.6700   66.9940   27.0870 C.ar  321  PHE321     -0.0003
    193  CE2       -3.5040   69.1050   26.0040 C.ar  321  PHE321     -0.0003
    194  CZ        -3.8990   68.3390   27.0850 C.ar  321  PHE321     -0.0000
    195  N         -5.0880   65.1390   23.3570 N.am  322  GLY322     -0.1940
    196  CA        -6.4600   65.5520   23.1450 C.3   322  GLY322      0.2014
    197  C         -7.1460   64.5800   22.2270 C.2   322  GLY322      0.2638
    198  O         -8.3360   64.2680   22.3980 O.2   322  GLY322     -0.2714
    199  N         -6.3940   64.1000   21.2510 N.am  323  LEU323     -0.1977
    200  CA        -6.8720   63.0850   20.3520 C.3   323  LEU323      0.1596
    201  C         -7.1970   61.7750   21.0600 C.2   323  LEU323      0.2287
    202  O         -8.1590   61.1120   20.7470 O.2   323  LEU323     -0.2864
    203  CB        -5.7970   62.8060   19.3310 C.3   323  LEU323      0.0297
    204  CG        -5.9510   61.4380   18.6880 C.3   323  LEU323      0.0022
    205  CD1       -6.8040   61.5720   17.4380 C.3   323  LEU323      0.0001
    206  CD2       -4.5700   60.8140   18.4140 C.3   323  LEU323      0.0001
    207  N        -10.7570   62.1440   22.4180 N.3   326  VAL326     -0.1245
    208  CA       -11.7260   61.8350   21.3470 C.3   326  VAL326      0.1561
    209  C        -11.8910   60.3300   20.9720 C.2   326  VAL326      0.2260
    210  O        -13.0260   59.8500   20.7890 O.2   326  VAL326     -0.2867
    211  CB       -11.4100   62.6280   20.0600 C.3   326  VAL326      0.0252
    212  CG1      -12.4630   62.2630   19.0290 C.3   326  VAL326      0.0019
    213  CG2      -11.4410   64.1350   20.3410 C.3   326  VAL326      0.0019
@<TRIPOS>BOND
     1     1     2    1
     2     8     6    1
     3    31    29    1
     4     2     3    1
     5     2     5    1
     6     6     5    1
     7     6     7    1
     8    29    30    1
     9    29    26    1
    10    16    15    2
    11    15    14    1
    12     3     4    2
    13     3     9   am
    14   123   121   ar
    15   123   122   ar
    16   121   119   ar
    17     9    10    1
    18    12    11    2
    19   122   120   ar
    20   119   118   ar
    21    28    27    2
    22    25    26    1
    23    25    22   am
    24    26    27    1
    25    11    10    1
    26   120   118   ar
    27    13    14    1
    28    20    21    1
    29   118   117    1
    30    14    17    1
    31    21    22    1
    32    21    24    1
    33    27    32   am
    34    22    23    2
    35   117   114    1
    36    34    35    2
    37    34    33    1
    38    18    17    1
    39    32    33    1
    40    17    19    1
    41    89    90    1
    42    33    36    1
    43    92    91    2
    44   114   113    1
    45   114   115    1
    46    91    90    1
    47   100    99    2
    48   113   106   am
    49    90    93    1
    50   115   116    2
    51   115   124   am
    52    97    98    1
    53   127   126    2
    54    36    37    1
    55   124   125    1
    56   106   105    1
    57   106   107    2
    58   126   125    1
    59    99    98    1
    60    99   104   am
    61   105   104    1
    62   105   108    1
    63    37    38    1
    64    93    94    1
    65    93    95    1
    66   157   155   ar
    67    98   101    1
    68   125   128    1
    69   132   133    1
    70   102   101    1
    71    94    96    1
    72   133   134    1
    73   108   109    1
    74    39    38    1
    75    39    40    1
    76   155   154    1
    77   155   156   ar
    78   101   103    1
    79   128   129    1
    80   154   151    1
    81   134   136   am
    82   134   135    2
    83   109   110    1
    84   129   130    1
    85   136   137    1
    86   153   152    2
    87    50    48   ar
    88    50    51   ar
    89    83    84    2
    90    83    82    1
    91   151   152    1
    92   151   150    1
    93   111   110   ar
    94    48    46   ar
    95   130   131    1
    96   170   168    1
    97   110   112   ar
    98    51    49   ar
    99    87    86    1
   100   141   140    1
   101    82    81    1
   102    82    85    1
   103   169   168    1
   104    46    45    1
   105    46    47   ar
   106   137   140    1
   107   137   138    1
   108    45    42    1
   109   139   138    2
   110   150   144   am
   111    80    78    1
   112    49    47   ar
   113   168   167    1
   114    86    85    1
   115    86    88    1
   116   167   164    1
   117    65    62    1
   118    43    42    1
   119    43    44    2
   120   205   204    1
   121    42    41    1
   122   145   144    2
   123   144   143    1
   124   182   181   ar
   125   164   165    1
   126   164   163    1
   127    78    79    1
   128    78    75    1
   129   165   166    2
   130   149   147    1
   131   161   160    2
   132    76    75    1
   133    76    77    2
   134   206   204    1
   135   147   146    1
   136   147   148    1
   137    62    63    1
   138    62    61    1
   139   183   181   ar
   140   204   203    1
   141    75    74    1
   142   181   180    1
   143   175   172    1
   144   143   146    1
   145   143   142    1
   146    63    64    2
   147   212   211    1
   148   162   159    1
   149   203   200    1
   150    61    54   am
   151   160   159    1
   152   159   158    1
   153   176   177    1
   154   176   173   am
   155   172   173    1
   156   172   171    1
   157   211   213    1
   158   211   208    1
   159   177   180    1
   160   177   178    1
   161   200   201    1
   162   200   199    1
   163   173   174    2
   164    54    53    1
   165    54    55    2
   166    52    53    1
   167   202   201    2
   168   210   209    2
   169   209   208    1
   170   199   197   am
   171   208   207    1
   172    53    56    1
   173    56    57    1
   174   178   179    2
   175   178   184   am
   176    70    67    1
   177    70    71    1
   178    68    69    2
   179    68    67    1
   180   187   186    2
   181   184   185    1
   182   197   198    2
   183   197   196    1
   184    57    58    1
   185    67    66    1
   186    71    72    1
   187   186   185    1
   188   186   195   am
   189   196   195    1
   190   185   188    1
   191    58    60   ar
   192    58    59   ar
   193   188   189    1
   194    72    73    1
   195   189   191   ar
   196   189   190   ar
   197   191   193   ar
   198   193   194   ar
   199   190   192   ar
   200   194   192   ar
