@<TRIPOS>MOLECULE
tmp/2c0qA00.pdb
 119 119 0 0 0
SMALL
GASTEIGER

@<TRIPOS>ATOM
      1  N         28.6620   15.0840   18.8690 N.3   120  GLY120     -0.1210
      2  CA        29.2370   15.2740   17.5440 C.3   120  GLY120      0.1956
      3  C         30.1280   16.5080   17.4700 C.2   120  GLY120      0.2612
      4  O         30.4780   17.1210   18.5000 O.2   120  GLY120     -0.2717
      5  N         30.4880   16.8990   16.2510 N.am  121  GLY121     -0.1942
      6  CA        31.4460   17.9990   16.0590 C.3   121  GLY121      0.2014
      7  C         32.5330   17.6430   15.0520 C.2   121  GLY121      0.2639
      8  O         33.6440   18.2100   15.0940 O.2   121  GLY121     -0.2714
      9  N         32.2080   16.6750   14.1870 N.am  122  GLY122     -0.1954
     10  CA        33.0210   16.2740   13.0670 C.3   122  GLY122      0.1869
     11  C         34.3520   15.6590   13.4510 C.2   122  GLY122      0.2309
     12  O         35.2250   15.5300   12.5900 O.2   122  GLY122     -0.2863
     13  N         36.4620   17.1080   15.2970 N.3   124  TYR124     -0.1227
     14  CA        37.3570   18.2550   15.5530 C.3   124  TYR124      0.1736
     15  C         36.8130   19.1950   16.6190 C.2   124  TYR124      0.2596
     16  O         37.4870   20.1500   16.9940 O.2   124  TYR124     -0.2718
     17  CB        37.6760   19.0690   14.2750 C.3   124  TYR124      0.0548
     18  CG        36.4580   19.7710   13.7150 C.ar  124  TYR124     -0.0200
     19  CD1       36.0400   21.0140   14.2020 C.ar  124  TYR124     -0.0009
     20  CD2       35.6830   19.1540   12.7440 C.ar  124  TYR124     -0.0009
     21  CE1       34.8870   21.6360   13.7080 C.ar  124  TYR124      0.0417
     22  CE2       34.5510   19.7580   12.2430 C.ar  124  TYR124      0.0417
     23  CZ        34.1600   20.9890   12.7340 C.ar  124  TYR124      0.1957
     24  OH        33.0240   21.5250   12.2150 O.3   124  TYR124     -0.2866
     25  N         35.5970   18.9580   17.0890 N.am  125  SER125     -0.1952
     26  CA        35.0150   19.7880   18.1420 C.3   125  SER125      0.1924
     27  C         33.9710   19.0240   18.9450 C.2   125  SER125      0.2314
     28  O         33.6360   17.8660   18.6320 O.2   125  SER125     -0.2863
     29  CB        34.3710   21.0620   17.5620 C.3   125  SER125      0.2116
     30  OG        33.4330   20.7390   16.5380 O.3   125  SER125     -0.2180
     31  N         25.0540   11.8710   18.0170 N.3   202  GLU202     -0.1231
     32  CA        24.6200   12.5480   16.8040 C.3   202  GLU202      0.1699
     33  C         25.8350   12.9750   15.9620 C.2   202  GLU202      0.2593
     34  O         26.8560   13.3570   16.4980 O.2   202  GLU202     -0.2718
     35  CB        23.6760   13.6980   17.1850 C.3   202  GLU202      0.0402
     36  CG        23.1120   14.4560   16.0240 C.3   202  GLU202      0.1161
     37  CD        24.0910   15.5040   15.5240 C.2   202  GLU202      0.3649
     38  OE1       25.0080   15.9160   16.3060 O.co2 202  GLU202     -0.2457
     39  OE2       23.9490   15.9000   14.3560 O.co2 202  GLU202     -0.2457
     40  N         25.7100   12.8750   14.6420 N.am  203  SER203     -0.1938
     41  CA        26.7890   13.1700   13.6720 C.3   203  SER203      0.2055
     42  C         28.1390   12.3860   13.8780 C.2   203  SER203      0.2642
     43  O         28.1780   11.1840   13.6200 O.2   203  SER203     -0.2714
     44  CB        26.9690   14.6780   13.4870 C.3   203  SER203      0.2130
     45  OG        27.8170   14.9170   12.3690 O.3   203  SER203     -0.2179
     46  N         29.2310   13.0270   14.3010 N.am  204  ALA204     -0.1977
     47  CA        30.4370   12.2240   14.6100 C.3   204  ALA204      0.1597
     48  C         30.1840   11.3620   15.8510 C.2   204  ALA204      0.2287
     49  O         30.8520   10.3550   16.0520 O.2   204  ALA204     -0.2864
     50  CB        31.6830   13.0730   14.7940 C.3   204  ALA204      0.0319
     51  N         33.1750   10.2180    5.0930 N.3   236  TRP236     -0.1241
     52  CA        33.9110   11.1600    5.9620 C.3   236  TRP236      0.1605
     53  C         34.3210   10.5970    7.3140 C.2   236  TRP236      0.2264
     54  O         35.1970   11.1730    7.9760 O.2   236  TRP236     -0.2867
     55  CB        33.0840   12.4340    6.2120 C.3   236  TRP236      0.0550
     56  CG        31.7010   12.1210    6.7390 C.ar  236  TRP236      0.0003
     57  CD1       30.5570   11.9130    5.9870 C.ar  236  TRP236      0.0946
     58  CD2       31.3170   11.9210    8.1100 C.ar  236  TRP236      0.0152
     59  NE1       29.4950   11.6270    6.8130 N.ar  236  TRP236     -0.2442
     60  CE2       29.9230   11.6210    8.1140 C.ar  236  TRP236      0.0810
     61  CE3       32.0020   11.9930    9.3380 C.ar  236  TRP236      0.0012
     62  CZ2       29.2080   11.3850    9.2930 C.ar  236  TRP236      0.0191
     63  CZ3       31.2980   11.7620   10.5130 C.ar  236  TRP236      0.0001
     64  CH2       29.9090   11.4520   10.4820 C.ar  236  TRP236      0.0015
     65  N         32.1070   18.9030    4.6420 N.3   288  PHE288     -0.1241
     66  CA        31.8180   17.5720    5.2020 C.3   288  PHE288      0.1605
     67  C         33.0420   16.6240    5.0630 C.2   288  PHE288      0.2264
     68  O         32.9020   15.4350    4.7660 O.2   288  PHE288     -0.2867
     69  CB        30.5580   16.9690    4.5500 C.3   288  PHE288      0.0534
     70  CG        29.5740   16.4070    5.5350 C.ar  288  PHE288     -0.0203
     71  CD1       29.9580   15.4110    6.4430 C.ar  288  PHE288     -0.0042
     72  CD2       28.2570   16.8720    5.5580 C.ar  288  PHE288     -0.0042
     73  CE1       29.0470   14.9120    7.3660 C.ar  288  PHE288     -0.0003
     74  CE2       27.3550   16.3720    6.4600 C.ar  288  PHE288     -0.0003
     75  CZ        27.7400   15.3890    7.3710 C.ar  288  PHE288     -0.0000
     76  N         36.9190   16.1190    7.2030 N.3   290  PHE290     -0.1241
     77  CA        37.6220   16.5410    8.3940 C.3   290  PHE290      0.1605
     78  C         38.9880   15.8810    8.4260 C.2   290  PHE290      0.2264
     79  O         39.1400   14.7740    7.9730 O.2   290  PHE290     -0.2867
     80  CB        36.7410   16.2710    9.6250 C.3   290  PHE290      0.0534
     81  CG        35.2630   16.4670    9.3400 C.ar  290  PHE290     -0.0203
     82  CD1       34.7090   17.7660    9.2880 C.ar  290  PHE290     -0.0042
     83  CD2       34.4380   15.3680    9.0470 C.ar  290  PHE290     -0.0042
     84  CE1       33.3470   17.9770    8.9840 C.ar  290  PHE290     -0.0003
     85  CE2       33.0680   15.5680    8.7450 C.ar  290  PHE290     -0.0003
     86  CZ        32.5210   16.8770    8.7230 C.ar  290  PHE290     -0.0000
     87  N         23.5570   22.9410    6.4220 N.3   330  TYR330     -0.1227
     88  CA        24.4950   23.5570    7.3690 C.3   330  TYR330      0.1736
     89  C         25.8450   23.9320    6.7570 C.2   330  TYR330      0.2595
     90  O         26.3310   25.0490    6.9410 O.2   330  TYR330     -0.2718
     91  CB        24.7150   22.6530    8.5980 C.3   330  TYR330      0.0548
     92  CG        25.2970   23.3610    9.8030 C.ar  330  TYR330     -0.0200
     93  CD1       24.4740   23.8080   10.8470 C.ar  330  TYR330     -0.0009
     94  CD2       26.6740   23.5760    9.9050 C.ar  330  TYR330     -0.0009
     95  CE1       25.0100   24.4710   11.9590 C.ar  330  TYR330      0.0417
     96  CE2       27.2240   24.2280   11.0010 C.ar  330  TYR330      0.0417
     97  CZ        26.3920   24.6770   12.0270 C.ar  330  TYR330      0.1957
     98  OH        26.9700   25.3300   13.1060 O.3   330  TYR330     -0.2866
     99  N         26.4610   23.0160    6.0350 N.am  331  PHE331     -0.1976
    100  CA        27.8390   23.2620    5.6440 C.3   331  PHE331      0.1639
    101  C         27.9970   24.0460    4.3520 C.2   331  PHE331      0.2290
    102  O         29.1020   24.4870    4.0070 O.2   331  PHE331     -0.2864
    103  CB        28.6350   21.9570    5.6430 C.3   331  PHE331      0.0560
    104  CG        29.0830   21.5300    7.0300 C.ar  331  PHE331     -0.0200
    105  CD1       28.7560   20.2640    7.5270 C.ar  331  PHE331     -0.0042
    106  CD2       29.8170   22.4230    7.8510 C.ar  331  PHE331     -0.0042
    107  CE1       29.1570   19.8870    8.7860 C.ar  331  PHE331     -0.0003
    108  CE2       30.2260   22.0520    9.1330 C.ar  331  PHE331     -0.0003
    109  CZ        29.8960   20.7810    9.6010 C.ar  331  PHE331     -0.0000
    110  N         21.3760   19.5260   10.4940 N.3   440  HIS440     -0.1241
    111  CA        21.7060   18.4610   11.4350 C.3   440  HIS440      0.1621
    112  C         21.9970   19.0610   12.8010 C.2   440  HIS440      0.2264
    113  O         22.4570   20.1930   12.9010 O.2   440  HIS440     -0.2867
    114  CB        22.8270   17.5510   10.9360 C.3   440  HIS440      0.0745
    115  CG        24.0040   18.2900   10.3930 C.ar  440  HIS440      0.0817
    116  ND1       24.7390   19.1770   11.1530 N.ar  440  HIS440     -0.2268
    117  CD2       24.5740   18.2810    9.1580 C.ar  440  HIS440      0.1154
    118  CE1       25.7040   19.6920   10.4050 C.ar  440  HIS440      0.1986
    119  NE2       25.6350   19.1590    9.1940 N.ar  440  HIS440     -0.2212
@<TRIPOS>BOND
     1   102   101    2
     2   101   100    1
     3    69    66    1
     4    69    70    1
     5    65    66    1
     6    68    67    2
     7    67    66    1
     8    51    52    1
     9    70    72   ar
    10    70    71   ar
    11    72    74   ar
    12   103   100    1
    13   103   104    1
    14   100    99    1
    15    52    55    1
    16    52    53    1
    17    57    56   ar
    18    57    59   ar
    19    99    89   am
    20    55    56    1
    21    87    88    1
    22    71    73   ar
    23    74    75   ar
    24    56    58   ar
    25    89    90    2
    26    89    88    1
    27    59    60   ar
    28   104   105   ar
    29   104   106   ar
    30    76    77    1
    31    53    54    2
    32    73    75   ar
    33    88    91    1
    34   105   107   ar
    35   106   108   ar
    36    79    78    2
    37    58    60   ar
    38    58    61   ar
    39    60    62   ar
    40    77    78    1
    41    77    80    1
    42    91    92    1
    43    86    85   ar
    44    86    84   ar
    45    85    83   ar
    46   107   109   ar
    47    84    82   ar
    48    83    81   ar
    49   108   109   ar
    50   117   119   ar
    51   117   115   ar
    52   119   118   ar
    53    82    81   ar
    54    62    64   ar
    55    61    63   ar
    56    81    80    1
    57    92    94   ar
    58    92    93   ar
    59    94    96   ar
    60   115   114    1
    61   115   116   ar
    62   118   116   ar
    63    64    63   ar
    64   110   111    1
    65    93    95   ar
    66   114   111    1
    67    96    97   ar
    68   111   112    1
    69    95    97   ar
    70    97    98    1
    71    24    23    1
    72    22    23   ar
    73    22    20   ar
    74    45    44    1
    75    12    11    2
    76    23    21   ar
    77    20    18   ar
    78   112   113    2
    79    10    11    1
    80    10     9    1
    81    44    41    1
    82    43    42    2
    83    41    42    1
    84    41    40    1
    85    21    19   ar
    86    18    19   ar
    87    18    17    1
    88    42    46   am
    89     9     7   am
    90    17    14    1
    91    46    47    1
    92    39    37   ar
    93    47    50    1
    94    47    48    1
    95    40    33   am
    96     7     8    2
    97     7     6    1
    98    13    14    1
    99    37    36    1
   100    37    38   ar
   101    14    15    1
   102    48    49    2
   103    33    34    2
   104    33    32    1
   105    36    35    1
   106     6     5    1
   107     5     3   am
   108    30    29    1
   109    15    16    2
   110    15    25   am
   111    32    35    1
   112    32    31    1
   113    25    26    1
   114     3     2    1
   115     3     4    2
   116     2     1    1
   117    29    26    1
   118    26    27    1
   119    28    27    2
