@<TRIPOS>MOLECULE
tmp/2c0uB02.pdb
 98 95 0 0 0
SMALL
GASTEIGER

@<TRIPOS>ATOM
      1  N         61.2580   82.8070  103.4850 N.3    90  ILE90      -0.1245
      2  CA        60.7530   84.1430  103.2160 C.3    90  ILE90       0.1561
      3  C         59.2660   84.0520  102.8370 C.2    90  ILE90       0.2260
      4  O         58.4620   84.9240  103.1880 O.2    90  ILE90      -0.2867
      5  CB        61.5600   84.7980  102.0690 C.3    90  ILE90       0.0252
      6  CG1       61.1090   86.2390  101.8680 C.3    90  ILE90       0.0019
      7  CG2       61.3680   84.0240  100.7780 C.3    90  ILE90       0.0019
      8  CD1       61.3480   87.1280  103.0640 C.3    90  ILE90       0.0001
      9  N         57.2640   83.8010  105.9150 N.3    93  VAL93      -0.1231
     10  CA        57.1850   85.1190  106.5430 C.3    93  VAL93       0.1692
     11  C         56.1680   85.9880  105.7890 C.2    93  VAL93       0.2591
     12  O         55.3790   86.7070  106.4000 O.2    93  VAL93      -0.2718
     13  CB        58.5650   85.8290  106.5140 C.3    93  VAL93       0.0266
     14  CG1       58.4420   87.2540  107.0600 C.3    93  VAL93       0.0020
     15  CG2       59.5630   85.0400  107.3300 C.3    93  VAL93       0.0020
     16  N         56.2080   85.9150  104.4600 N.am   94  ALA94      -0.1980
     17  CA        55.2980   86.6730  103.6050 C.3    94  ALA94       0.1597
     18  C         53.8430   86.3270  103.9420 C.2    94  ALA94       0.2287
     19  O         53.0130   87.2210  104.1200 O.2    94  ALA94      -0.2864
     20  CB        55.5820   86.3670  102.1300 C.3    94  ALA94       0.0319
     21  N         52.6590   87.6710  107.2230 N.3    97  LEU97      -0.1245
     22  CA        52.3570   89.1020  107.1580 C.3    97  LEU97       0.1561
     23  C         50.9530   89.3160  106.5820 C.2    97  LEU97       0.2260
     24  O         50.1600   90.0830  107.1330 O.2    97  LEU97      -0.2867
     25  CB        53.3690   89.8300  106.2660 C.3    97  LEU97       0.0270
     26  CG        53.8570   91.2070  106.7030 C.3    97  LEU97       0.0019
     27  CD1       54.3340   91.9370  105.4630 C.3    97  LEU97       0.0001
     28  CD2       52.7690   92.0170  107.4010 C.3    97  LEU97       0.0001
     29  N         55.9490   94.8680   94.6140 N.3   165  TRP165     -0.1228
     30  CA        56.6970   94.2810   95.7380 C.3   165  TRP165      0.1722
     31  C         55.9730   93.2760   96.6650 C.2   165  TRP165      0.2437
     32  O         56.6230   92.3970   97.2230 O.2   165  TRP165     -0.2733
     33  CB        57.3260   95.3740   96.6240 C.3   165  TRP165      0.0563
     34  CG        58.3050   96.2680   95.9170 C.ar  165  TRP165      0.0003
     35  CD1       58.1690   97.6050   95.6670 C.ar  165  TRP165      0.0946
     36  CD2       59.5550   95.8810   95.3520 C.ar  165  TRP165      0.0152
     37  NE1       59.2610   98.0730   94.9790 N.ar  165  TRP165     -0.2442
     38  CE2       60.1280   97.0350   94.7690 C.ar  165  TRP165      0.0810
     39  CE3       60.2510   94.6670   95.2810 C.ar  165  TRP165      0.0012
     40  CZ2       61.3680   97.0080   94.1190 C.ar  165  TRP165      0.0191
     41  CZ3       61.4780   94.6420   94.6360 C.ar  165  TRP165      0.0001
     42  CH2       62.0230   95.8040   94.0630 C.ar  165  TRP165      0.0015
     43  N         54.6370   93.3940   96.8560 N.am  166  PRO166     -0.2718
     44  CA        53.9630   92.4320   97.7480 C.3   166  PRO166      0.1535
     45  C         54.3210   90.9740   97.4720 C.2   166  PRO166      0.2599
     46  O         54.0350   90.4310   96.4040 O.2   166  PRO166     -0.2715
     47  CB        52.4820   92.7440   97.5300 C.3   166  PRO166      0.0310
     48  CG        52.5060   94.2360   97.3550 C.3   166  PRO166      0.0237
     49  CD        53.6780   94.4200   96.3960 C.3   166  PRO166      0.0939
     50  N         54.9520   90.3500   98.4580 N.am  167  SER167     -0.1950
     51  CA        55.3970   88.9700   98.3450 C.3   167  SER167      0.1924
     52  C         54.3290   87.9490   98.0170 C.2   167  SER167      0.2314
     53  O         53.3390   87.8270   98.7350 O.2   167  SER167     -0.2863
     54  CB        56.0890   88.5410   99.6350 C.3   167  SER167      0.2116
     55  OG        57.2580   89.2980   99.8440 O.3   167  SER167     -0.2180
     56  N         52.6450   95.6070  110.1770 N.3   269  PHE269     -0.1241
     57  CA        54.0030   95.9490  109.7820 C.3   269  PHE269      0.1605
     58  C         54.9130   96.1940  110.9830 C.2   269  PHE269      0.2264
     59  O         56.1280   96.0630  110.8730 O.2   269  PHE269     -0.2867
     60  CB        54.0080   97.1790  108.8670 C.3   269  PHE269      0.0534
     61  CG        53.8310   96.8470  107.4120 C.ar  269  PHE269     -0.0203
     62  CD1       52.7170   97.2980  106.7150 C.ar  269  PHE269     -0.0042
     63  CD2       54.7790   96.0760  106.7370 C.ar  269  PHE269     -0.0042
     64  CE1       52.5420   96.9890  105.3670 C.ar  269  PHE269     -0.0003
     65  CE2       54.6120   95.7610  105.3870 C.ar  269  PHE269     -0.0003
     66  CZ        53.4870   96.2210  104.6990 C.ar  269  PHE269     -0.0000
     67  N         55.9800   92.6090  112.0280 N.3   271  SER271     -0.1217
     68  CA        56.9390   92.0370  111.1080 C.3   271  SER271      0.1889
     69  C         58.2780   92.7660  111.2700 C.2   271  SER271      0.2288
     70  O         59.3360   92.1500  111.1920 O.2   271  SER271     -0.2866
     71  CB        56.4620   92.1700  109.6680 C.3   271  SER271      0.2089
     72  OG        56.4430   93.5270  109.2850 O.3   271  SER271     -0.2183
     73  N         61.7520   90.7770  111.3850 N.3   275  VAL275     -0.1245
     74  CA        62.7560   90.8150  110.3330 C.3   275  VAL275      0.1561
     75  C         64.1240   90.7510  111.0000 C.2   275  VAL275      0.2260
     76  O         65.0860   90.2910  110.4020 O.2   275  VAL275     -0.2867
     77  CB        62.6630   92.0940  109.4690 C.3   275  VAL275      0.0252
     78  CG1       61.3080   92.1730  108.7820 C.3   275  VAL275      0.0019
     79  CG2       62.8970   93.3060  110.3220 C.3   275  VAL275      0.0019
     80  N         63.7870   96.4550  102.7280 N.3   389  PHE389     -0.1227
     81  CA        62.4270   95.9190  102.7340 C.3   389  PHE389      0.1736
     82  C         61.6690   96.0200  104.0590 C.2   389  PHE389      0.2595
     83  O         62.2200   96.4450  105.0740 O.2   389  PHE389     -0.2718
     84  CB        62.4230   94.4580  102.2340 C.3   389  PHE389      0.0547
     85  CG        62.5820   93.4130  103.3220 C.ar  389  PHE389     -0.0202
     86  CD1       62.0240   92.1400  103.1630 C.ar  389  PHE389     -0.0042
     87  CD2       63.2630   93.7000  104.5070 C.ar  389  PHE389     -0.0042
     88  CE1       62.1310   91.1780  104.1730 C.ar  389  PHE389     -0.0003
     89  CE2       63.3760   92.7470  105.5220 C.ar  389  PHE389     -0.0003
     90  CZ        62.8050   91.4860  105.3580 C.ar  389  PHE389     -0.0000
     91  N         60.4040   95.6070  104.0240 N.am  390  ASP390     -0.1974
     92  CA        59.5340   95.6420  105.2030 C.3   390  ASP390      0.1709
     93  C         59.5480   97.0290  105.8520 C.2   390  ASP390      0.2293
     94  O         59.5880   97.1580  107.0810 O.2   390  ASP390     -0.2864
     95  CB        59.9650   94.5890  106.2110 C.3   390  ASP390      0.1436
     96  CG        58.9220   94.3390  107.2830 C.2   390  ASP390      0.3671
     97  OD1       57.8510   93.7890  106.9480 O.co2 390  ASP390     -0.2456
     98  OD2       59.1570   94.7080  108.4480 O.co2 390  ASP390     -0.2456
@<TRIPOS>BOND
     1    42    40   ar
     2    42    41   ar
     3    40    38   ar
     4    29    30    1
     5    41    39   ar
     6    38    37   ar
     7    38    36   ar
     8    37    35   ar
     9    39    36   ar
    10    36    34   ar
    11    35    34   ar
    12    30    33    1
    13    30    31    1
    14    34    33    1
    15    49    43    1
    16    49    48    1
    17    46    45    2
    18    31    43   am
    19    31    32    2
    20    43    44    1
    21    48    47    1
    22    45    44    1
    23    45    50   am
    24    47    44    1
    25    52    51    1
    26    52    53    2
    27    51    50    1
    28    51    54    1
    29    54    55    1
    30     7     5    1
    31     6     5    1
    32     6     8    1
    33     5     2    1
    34    20    17    1
    35    84    81    1
    36    84    85    1
    37    80    81    1
    38    81    82    1
    39     3     4    2
    40     3     2    1
    41    86    85   ar
    42    86    88   ar
    43     2     1    1
    44    85    87   ar
    45    17    18    1
    46    17    16    1
    47    18    19    2
    48    91    82   am
    49    91    92    1
    50    82    83    2
    51    88    90   ar
    52    16    11   am
    53    87    89   ar
    54    66    64   ar
    55    66    65   ar
    56    92    93    1
    57    92    95    1
    58    90    89   ar
    59    64    62   ar
    60    65    63   ar
    61    27    26    1
    62    11    12    2
    63    11    10    1
    64    93    94    2
    65     9    10    1
    66    95    96    1
    67    25    26    1
    68    25    22    1
    69    13    10    1
    70    13    14    1
    71    13    15    1
    72    23    24    2
    73    23    22    1
    74    26    28    1
    75    62    61   ar
    76    63    61   ar
    77    97    96   ar
    78    22    21    1
    79    96    98   ar
    80    61    60    1
    81    78    77    1
    82    60    57    1
    83    72    71    1
    84    77    79    1
    85    77    74    1
    86    71    68    1
    87    57    56    1
    88    57    58    1
    89    74    75    1
    90    74    73    1
    91    76    75    2
    92    59    58    2
    93    68    69    1
    94    68    67    1
    95    70    69    2
