@<TRIPOS>MOLECULE
tmp/2c10D01.pdb
 98 90 0 0 0
SMALL
GASTEIGER

@<TRIPOS>ATOM
      1  N        131.4370   74.8510   42.0640 N.3    25  ARG25      -0.1231
      2  CA       132.6340   75.7000   42.0450 C.3    25  ARG25       0.1694
      3  C        132.4260   77.1320   42.5450 C.2    25  ARG25       0.2591
      4  O        133.3970   77.7970   42.8910 O.2    25  ARG25      -0.2718
      5  CB       133.2420   75.7350   40.6310 C.3    25  ARG25       0.0321
      6  CG       133.5020   74.3640   40.0200 C.3    25  ARG25       0.0489
      7  CD       134.9240   73.8690   40.2500 C.3    25  ARG25       0.2205
      8  NE       134.9890   72.4060   40.3020 N.pl3  25  ARG25      -0.0865
      9  CZ       135.9470   71.6610   39.7440 C.cat  25  ARG25       0.5346
     10  NH1      136.9370   72.2260   39.0540 N.pl3  25  ARG25       0.1354
     11  NH2      135.9060   70.3380   39.8640 N.pl3  25  ARG25       0.1354
     12  N        131.1840   77.6070   42.5790 N.am   26  LEU26      -0.1980
     13  CA       130.9060   79.0040   42.9450 C.3    26  LEU26       0.1596
     14  C        130.6610   79.2190   44.4410 C.2    26  LEU26       0.2287
     15  O        130.3070   80.3230   44.8760 O.2    26  LEU26      -0.2864
     16  CB       129.7180   79.5510   42.1470 C.3    26  LEU26       0.0297
     17  CG       129.8470   79.7090   40.6290 C.3    26  LEU26       0.0022
     18  CD1      128.5040   80.0800   40.0500 C.3    26  LEU26       0.0001
     19  CD2      130.8870   80.7460   40.2470 C.3    26  LEU26       0.0001
     20  N        127.3410   88.5280   40.7850 N.3    77  PHE77      -0.1241
     21  CA       128.0710   88.3950   42.0500 C.3    77  PHE77       0.1605
     22  C        127.7220   89.4990   43.0400 C.2    77  PHE77       0.2264
     23  O        128.4570   90.4810   43.1710 O.2    77  PHE77      -0.2867
     24  CB       129.5860   88.3380   41.8240 C.3    77  PHE77       0.0534
     25  CG       130.0960   86.9790   41.4040 C.ar   77  PHE77      -0.0203
     26  CD1      130.6530   86.7940   40.1480 C.ar   77  PHE77      -0.0042
     27  CD2      130.0270   85.8920   42.2730 C.ar   77  PHE77      -0.0042
     28  CE1      131.1260   85.5440   39.7520 C.ar   77  PHE77      -0.0003
     29  CE2      130.5000   84.6410   41.8880 C.ar   77  PHE77      -0.0003
     30  CZ       131.0530   84.4680   40.6250 C.ar   77  PHE77      -0.0000
     31  N        129.0530   90.3590   48.0070 N.3    80  GLN80      -0.1245
     32  CA       130.4560   90.7490   48.2600 C.3    80  GLN80       0.1566
     33  C        130.6520   92.2570   48.4670 C.2    80  GLN80       0.2260
     34  O        129.7830   93.0430   48.1030 O.2    80  GLN80      -0.2867
     35  CB       131.4070   90.2140   47.1630 C.3    80  GLN80       0.0367
     36  CG       131.2020   90.7850   45.7620 C.3    80  GLN80       0.0905
     37  CD       131.7370   89.8740   44.6610 C.2    80  GLN80       0.2608
     38  OE1      131.7870   88.6500   44.8110 O.2    80  GLN80      -0.2717
     39  NE2      132.1220   90.4700   43.5430 N.am   80  GLN80      -0.0878
     40  N        129.9490   92.5790   41.2550 N.3    84  ASN84      -0.1240
     41  CA       130.1400   92.6790   39.8220 C.3    84  ASN84       0.1653
     42  C        129.3180   91.6240   39.0960 C.2    84  ASN84       0.2266
     43  O        128.7800   90.7060   39.7200 O.2    84  ASN84      -0.2867
     44  CB       131.6370   92.5880   39.4420 C.3    84  ASN84       0.1155
     45  CG       132.2250   91.1760   39.6090 C.2    84  ASN84       0.2627
     46  OD1      131.6450   90.1850   39.1440 O.2    84  ASN84      -0.2716
     47  ND2      133.4080   91.0980   40.2640 N.am   84  ASN84      -0.0877
     48  N        130.0170   88.7630   36.1800 N.3    86  SER86      -0.1217
     49  CA       131.1010   88.0690   35.4850 C.3    86  SER86       0.1889
     50  C        130.5770   87.1720   34.3620 C.2    86  SER86       0.2288
     51  O        129.4940   86.5960   34.4550 O.2    86  SER86      -0.2866
     52  CB       131.9690   87.2660   36.4670 C.3    86  SER86       0.2089
     53  OG       132.7870   88.1090   37.2730 O.3    86  SER86      -0.2183
     54  N        131.5540   83.8340   32.4400 N.3    88  LEU88      -0.1245
     55  CA       132.3810   82.6660   32.7210 C.3    88  LEU88       0.1561
     56  C        132.2350   81.6330   31.6220 C.2    88  LEU88       0.2260
     57  O        131.1390   81.1270   31.3880 O.2    88  LEU88      -0.2867
     58  CB       132.0240   82.0430   34.0730 C.3    88  LEU88       0.0270
     59  CG       132.0970   82.9420   35.3080 C.3    88  LEU88       0.0019
     60  CD1      131.5030   82.2390   36.5270 C.3    88  LEU88       0.0001
     61  CD2      133.5210   83.4060   35.5840 C.3    88  LEU88       0.0001
     62  N        136.4250   76.4630   34.1040 N.3    99  MET99      -0.1245
     63  CA       135.5620   77.6290   34.1770 C.3    99  MET99       0.1570
     64  C        136.4750   78.8480   34.1310 C.2    99  MET99       0.2261
     65  O        137.3470   78.9930   34.9890 O.2    99  MET99      -0.2867
     66  CB       134.7560   77.6010   35.4800 C.3    99  MET99       0.0387
     67  CG       134.1320   78.9250   35.8710 C.3    99  MET99       0.0595
     68  SD       133.3410   78.8930   37.4980 S.3    99  MET99      -0.1393
     69  CE       134.7450   78.7950   38.6130 C.3    99  MET99       0.0692
     70  N        137.0940   83.0560   33.8120 N.3   101  ASP101     -0.1239
     71  CA       136.6200   84.4200   33.8400 C.3   101  ASP101      0.1674
     72  C        137.1930   85.1730   32.6460 C.2   101  ASP101      0.2266
     73  O        138.3720   85.5210   32.6160 O.2   101  ASP101     -0.2867
     74  CB       136.9670   85.1070   35.1610 C.3   101  ASP101      0.1410
     75  CG       136.1660   86.3850   35.3870 C.2   101  ASP101      0.3668
     76  OD1      135.1520   86.6030   34.6880 O.co2 101  ASP101     -0.2456
     77  OD2      136.5440   87.1730   36.2760 O.co2 101  ASP101     -0.2456
     78  N        135.7990   88.0670   31.7410 N.3   103  THR103     -0.1203
     79  CA       135.2470   89.4230   31.8940 C.3   103  THR103      0.1994
     80  C        136.2640   90.5390   31.6480 C.2   103  THR103      0.2617
     81  O        136.0030   91.4550   30.8570 O.2   103  THR103     -0.2717
     82  CB       134.5760   89.6340   33.2710 C.3   103  THR103      0.1784
     83  OG1      133.6030   88.6100   33.4910 O.3   103  THR103     -0.2211
     84  CG2      133.8780   90.9830   33.3290 C.3   103  THR103      0.0376
     85  N        137.4120   90.4480   32.3190 N.am  104  VAL104     -0.1979
     86  CA       138.4700   91.4500   32.2230 C.3   104  VAL104      0.1595
     87  C        139.0240   91.4970   30.8020 C.2   104  VAL104      0.2287
     88  O        139.1330   92.5610   30.1980 O.2   104  VAL104     -0.2864
     89  CB       139.6210   91.1460   33.2110 C.3   104  VAL104      0.0276
     90  CG1      140.7300   92.1970   33.1060 C.3   104  VAL104      0.0022
     91  CG2      139.0950   91.0520   34.6340 C.3   104  VAL104      0.0022
     92  N        136.2900   94.9250   35.4180 N.3   110  PRO110     -0.2116
     93  CA       135.0070   94.4330   35.9360 C.3   110  PRO110      0.1372
     94  C        133.8150   95.0340   35.2010 C.2   110  PRO110      0.2244
     95  O        133.9080   96.1590   34.7180 O.2   110  PRO110     -0.2868
     96  CB       135.0110   94.8930   37.4040 C.3   110  PRO110      0.0268
     97  CG       135.9600   96.0430   37.4460 C.3   110  PRO110      0.0207
     98  CD       137.0160   95.7290   36.4200 C.3   110  PRO110      0.0892
@<TRIPOS>BOND
     1    88    87    2
     2    87    86    1
     3    81    80    2
     4    57    56    2
     5    56    55    1
     6    80    79    1
     7    80    85   am
     8    78    79    1
     9    79    82    1
    10    86    85    1
    11    86    89    1
    12    54    55    1
    13    73    72    2
    14    72    71    1
    15    55    58    1
    16    90    89    1
    17    89    91    1
    18    82    84    1
    19    82    83    1
    20    70    71    1
    21    71    74    1
    22    58    59    1
    23    62    63    1
    24    64    63    1
    25    64    65    2
    26    63    66    1
    27    50    51    2
    28    50    49    1
    29    76    75   ar
    30    95    94    2
    31    74    75    1
    32    94    93    1
    33    59    61    1
    34    59    60    1
    35    75    77   ar
    36    92    93    1
    37    92    98    1
    38    66    67    1
    39    49    48    1
    40    49    52    1
    41    67    68    1
    42    93    96    1
    43    98    97    1
    44    52    53    1
    45    96    97    1
    46    68    69    1
    47    10     9    1
    48    42    43    2
    49    42    41    1
    50    46    45    2
    51    44    45    1
    52    44    41    1
    53    45    47   am
    54     9    11    1
    55     9     8    2
    56    28    26   ar
    57    28    30   ar
    58    41    40    1
    59     6     7    1
    60     6     5    1
    61    18    17    1
    62    26    25   ar
    63    19    17    1
    64     7     8    1
    65    30    29   ar
    66    17    16    1
    67     5     2    1
    68    20    21    1
    69    25    24    1
    70    25    27   ar
    71    24    21    1
    72    29    27   ar
    73     2     1    1
    74     2     3    1
    75    21    22    1
    76    16    13    1
    77     3    12   am
    78     3     4    2
    79    12    13    1
    80    13    14    1
    81    22    23    2
    82    39    37   am
    83    14    15    2
    84    37    38    2
    85    37    36    1
    86    36    35    1
    87    35    32    1
    88    31    32    1
    89    34    33    2
    90    32    33    1
