@<TRIPOS>MOLECULE
tmp/2c12F03.pdb
 108 103 0 0 0
SMALL
GASTEIGER

@<TRIPOS>ATOM
      1  N         12.0820  112.8280  160.7720 N.3    62  PRO62      -0.2116
      2  CA        12.2210  114.2680  160.5210 C.3    62  PRO62       0.1372
      3  C         11.0430  115.1040  161.0340 C.2    62  PRO62       0.2244
      4  O          9.9180  114.6050  161.1390 O.2    62  PRO62      -0.2868
      5  CB        12.2900  114.3540  158.9920 C.3    62  PRO62       0.0268
      6  CG        12.8340  113.0780  158.5660 C.3    62  PRO62       0.0207
      7  CD        12.3170  112.0430  159.5530 C.3    62  PRO62       0.0892
      8  N          9.4690  117.7230  159.4860 N.3    64  PRO64      -0.2102
      9  CA         8.4370  117.8900  158.4420 C.3    64  PRO64       0.1504
     10  C          7.4410  116.7300  158.2710 C.2    64  PRO64       0.2575
     11  O          6.4040  116.9130  157.6080 O.2    64  PRO64      -0.2718
     12  CB         9.2600  118.0280  157.1590 C.3    64  PRO64       0.0282
     13  CG        10.5700  118.5910  157.6260 C.3    64  PRO64       0.0208
     14  CD        10.8260  117.8490  158.9210 C.3    64  PRO64       0.0893
     15  N          7.7730  115.5720  158.8480 N.am   65  LEU65      -0.1980
     16  CA         6.9350  114.3830  158.8210 C.3    65  LEU65       0.1596
     17  C          6.3180  114.0880  160.2150 C.2    65  LEU65       0.2287
     18  O          5.7900  112.9980  160.4460 O.2    65  LEU65      -0.2864
     19  CB         7.7940  113.2040  158.3480 C.3    65  LEU65       0.0297
     20  CG         7.7970  112.7600  156.8720 C.3    65  LEU65       0.0022
     21  CD1        7.2780  113.7890  155.8790 C.3    65  LEU65       0.0001
     22  CD2        9.1970  112.2570  156.4730 C.3    65  LEU65       0.0001
     23  N         10.3380  107.3690  155.0810 N.3   104  ILE104     -0.1231
     24  CA        10.7910  108.7650  155.2290 C.3   104  ILE104      0.1692
     25  C         11.3550  109.3420  153.9360 C.2   104  ILE104      0.2592
     26  O         11.1460  110.5220  153.6170 O.2   104  ILE104     -0.2718
     27  CB        11.8450  108.8390  156.3400 C.3   104  ILE104      0.0266
     28  CG1       11.1580  108.6640  157.7030 C.3   104  ILE104      0.0019
     29  CG2       12.6480  110.1680  156.2840 C.3   104  ILE104      0.0020
     30  CD1       12.1220  108.2840  158.8210 C.3   104  ILE104      0.0001
     31  N         12.0600  108.4910  153.1940 N.am  105  LEU105     -0.1966
     32  CA        12.7860  108.8940  151.9910 C.3   105  LEU105      0.1728
     33  C         11.9610  108.8240  150.7080 C.2   105  LEU105      0.2616
     34  O         12.3890  109.3450  149.6850 O.2   105  LEU105     -0.2715
     35  CB        14.0220  107.9930  151.8080 C.3   105  LEU105      0.0311
     36  CG        15.0710  108.1090  152.9110 C.3   105  LEU105      0.0022
     37  CD1       16.0730  106.9590  152.8200 C.3   105  LEU105      0.0001
     38  CD2       15.7610  109.4590  152.8350 C.3   105  LEU105      0.0001
     39  N         10.8110  108.1550  150.7300 N.am  106  CYS106     -0.1968
     40  CA        10.0680  107.9440  149.4870 C.3   106  CYS106      0.1712
     41  C          9.4050  109.2430  149.0630 C.2   106  CYS106      0.2296
     42  O          9.3120  110.1760  149.8430 O.2   106  CYS106     -0.2864
     43  CB         9.0370  106.8230  149.6230 C.3   106  CYS106      0.0983
     44  SG         7.5490  107.3150  150.4960 S.3   106  CYS106     -0.0798
     45  N         15.9970  103.6940  147.1510 N.3   267  LEU267     -0.1245
     46  CA        15.5210  103.8480  148.5380 C.3   267  LEU267      0.1561
     47  C         16.2360  102.8970  149.4920 C.2   267  LEU267      0.2260
     48  O         16.6250  103.2720  150.6080 O.2   267  LEU267     -0.2867
     49  CB        14.0070  103.5930  148.6210 C.3   267  LEU267      0.0270
     50  CG        13.1210  104.5830  147.8720 C.3   267  LEU267      0.0019
     51  CD1       11.6710  104.1480  147.9950 C.3   267  LEU267      0.0001
     52  CD2       13.2930  106.0080  148.3980 C.3   267  LEU267      0.0001
     53  N         19.9480  104.0770  149.7800 N.3   270  THR270     -0.1218
     54  CA        19.9950  105.2990  150.5600 C.3   270  THR270      0.1862
     55  C         19.8410  105.0140  152.0440 C.2   270  THR270      0.2287
     56  O         20.5980  105.5430  152.8730 O.2   270  THR270     -0.2866
     57  CB        18.9020  106.2820  150.0650 C.3   270  THR270      0.1770
     58  OG1       19.1590  106.6230  148.6970 O.3   270  THR270     -0.2211
     59  CG2       19.0110  107.6110  150.7480 C.3   270  THR270      0.0375
     60  N         26.3530  113.4550  154.2790 N.3   340  LEU340     -0.1231
     61  CA        25.0220  112.9780  153.8880 C.3   340  LEU340      0.1693
     62  C         24.0040  114.1260  153.8710 C.2   340  LEU340      0.2591
     63  O         23.1500  114.2010  152.9860 O.2   340  LEU340     -0.2718
     64  CB        24.5480  111.8700  154.8200 C.3   340  LEU340      0.0284
     65  CG        25.1040  110.4960  154.4660 C.3   340  LEU340      0.0019
     66  CD1       25.0340  109.5570  155.6850 C.3   340  LEU340      0.0001
     67  CD2       24.3360  109.9340  153.2800 C.3   340  LEU340      0.0001
     68  N         24.1390  115.0310  154.8290 N.am  341  GLU341     -0.1979
     69  CA        23.2430  116.1700  154.9760 C.3   341  GLU341      0.1602
     70  C         23.4990  117.3110  153.9950 C.2   341  GLU341      0.2287
     71  O         22.6450  118.1960  153.8570 O.2   341  GLU341     -0.2864
     72  CB        23.3460  116.7290  156.3940 C.3   341  GLU341      0.0415
     73  CG        22.7330  115.8280  157.4390 C.3   341  GLU341      0.1163
     74  CD        22.7110  116.4450  158.8250 C.2   341  GLU341      0.3649
     75  OE1       21.8430  116.0400  159.6220 O.co2 341  GLU341     -0.2457
     76  OE2       23.5540  117.3170  159.1210 O.co2 341  GLU341     -0.2457
     77  N         23.4600  119.4840  150.9260 N.3   343  GLU343     -0.1245
     78  CA        22.5850  119.6420  149.7480 C.3   343  GLU343      0.1567
     79  C         23.3720  119.7460  148.4410 C.2   343  GLU343      0.2260
     80  O         22.8580  119.4190  147.3720 O.2   343  GLU343     -0.2867
     81  CB        21.7070  120.9060  149.8700 C.3   343  GLU343      0.0388
     82  CG        20.7090  120.9040  151.0300 C.3   343  GLU343      0.1160
     83  CD        20.1320  122.2880  151.3400 C.2   343  GLU343      0.3649
     84  OE1       19.4840  122.4360  152.3980 O.co2 343  GLU343     -0.2457
     85  OE2       20.3120  123.2330  150.5310 O.co2 343  GLU343     -0.2457
     86  N         25.4500  112.0440  145.0160 N.3   347  TRP347     -0.1241
     87  CA        25.1660  110.8460  145.8040 C.3   347  TRP347      0.1605
     88  C         26.4100  109.9440  145.9510 C.2   347  TRP347      0.2264
     89  O         26.7170  109.5200  147.0560 O.2   347  TRP347     -0.2867
     90  CB        23.9890  110.0430  145.2520 C.3   347  TRP347      0.0550
     91  CG        23.8100  108.7550  146.0100 C.ar  347  TRP347      0.0003
     92  CD1       23.9740  107.4830  145.5310 C.ar  347  TRP347      0.0946
     93  CD2       23.4970  108.6180  147.3980 C.ar  347  TRP347      0.0152
     94  NE1       23.7570  106.5690  146.5350 N.ar  347  TRP347     -0.2442
     95  CE2       23.4500  107.2380  147.6890 C.ar  347  TRP347      0.0810
     96  CE3       23.2310  109.5210  148.4280 C.ar  347  TRP347      0.0012
     97  CZ2       23.1660  106.7470  148.9640 C.ar  347  TRP347      0.0191
     98  CZ3       22.9490  109.0240  149.6940 C.ar  347  TRP347      0.0001
     99  CH2       22.9280  107.6570  149.9490 C.ar  347  TRP347      0.0015
    100  N         28.6260  111.0870  148.7760 N.3   350  LYS350     -0.1245
    101  CA        27.9820  110.7260  150.0410 C.3   350  LYS350      0.1561
    102  C         28.0840  109.2310  150.3340 C.2   350  LYS350      0.2260
    103  O         28.3920  108.8370  151.4590 O.2   350  LYS350     -0.2867
    104  CB        26.4980  111.1300  150.0130 C.3   350  LYS350      0.0271
    105  CG        26.2790  112.6090  149.9340 C.3   350  LYS350      0.0035
    106  CD        24.8020  112.9810  149.9900 C.3   350  LYS350      0.0206
    107  CE        24.6290  114.4690  149.8220 C.3   350  LYS350      0.1093
    108  NZ        23.2450  114.9080  150.0900 N.3   350  LYS350     -0.1314
@<TRIPOS>BOND
     1    86    87    1
     2    90    87    1
     3    90    91    1
     4    92    91   ar
     5    92    94   ar
     6    87    88    1
     7    88    89    2
     8    91    93   ar
     9    94    95   ar
    10    45    46    1
    11    80    79    2
    12    93    95   ar
    13    93    96   ar
    14    95    97   ar
    15    50    51    1
    16    50    52    1
    17    50    49    1
    18    96    98   ar
    19    79    78    1
    20    46    49    1
    21    46    47    1
    22    58    57    1
    23   100   101    1
    24    97    99   ar
    25    41    40    1
    26    41    42    2
    27    40    43    1
    28    40    39    1
    29    47    48    2
    30    43    44    1
    31    34    33    2
    32    98    99   ar
    33    78    81    1
    34    78    77    1
    35    53    54    1
    36   107   106    1
    37   107   108    1
    38    81    82    1
    39   105   106    1
    40   105   104    1
    41   104   101    1
    42   101   102    1
    43    57    54    1
    44    57    59    1
    45   102   103    2
    46    85    83   ar
    47    54    55    1
    48    33    39   am
    49    33    32    1
    50    82    83    1
    51    83    84   ar
    52    35    32    1
    53    35    36    1
    54    32    31    1
    55    55    56    2
    56    37    36    1
    57    38    36    1
    58    63    62    2
    59    31    25   am
    60    67    65    1
    61    26    25    2
    62    71    70    2
    63    62    61    1
    64    62    68   am
    65    61    60    1
    66    61    64    1
    67    25    24    1
    68    70    69    1
    69    65    64    1
    70    65    66    1
    71    68    69    1
    72    69    72    1
    73    23    24    1
    74    24    27    1
    75    21    20    1
    76    29    27    1
    77    27    28    1
    78    72    73    1
    79    22    20    1
    80    20    19    1
    81    12    13    1
    82    12     9    1
    83    73    74    1
    84    11    10    2
    85    13    14    1
    86    28    30    1
    87    10     9    1
    88    10    15   am
    89    19    16    1
    90     9     8    1
    91     6     5    1
    92     6     7    1
    93    16    15    1
    94    16    17    1
    95    74    76   ar
    96    74    75   ar
    97    14     8    1
    98     5     2    1
    99     7     1    1
   100    17    18    2
   101     2     1    1
   102     2     3    1
   103     3     4    2
