@<TRIPOS>MOLECULE
tmp/2c12F02.pdb
 174 159 0 0 0
SMALL
GASTEIGER

@<TRIPOS>ATOM
      1  N         13.6070  109.6920  165.6150 N.3    60  GLN60      -0.1245
      2  CA        14.0880  109.0030  164.4250 C.3    60  GLN60       0.1566
      3  C         13.3690  109.4670  163.1700 C.2    60  GLN60       0.2260
      4  O         13.6680  108.9710  162.1020 O.2    60  GLN60      -0.2867
      5  CB        13.9360  107.4800  164.5440 C.3    60  GLN60       0.0367
      6  CG        14.5420  106.8860  165.7770 C.3    60  GLN60       0.0905
      7  CD        15.9550  107.3870  166.0240 C.2    60  GLN60       0.2608
      8  OE1       16.2360  107.9830  167.0640 O.2    60  GLN60      -0.2717
      9  NE2       16.8430  107.1470  165.0680 N.am   60  GLN60      -0.0878
     10  N         13.4650  114.6290  165.0120 N.3    69  MET69      -0.1245
     11  CA        14.8850  114.5520  164.6490 C.3    69  MET69       0.1570
     12  C         15.4180  115.9370  164.3360 C.2    69  MET69       0.2261
     13  O         14.8470  116.6530  163.5160 O.2    69  MET69      -0.2867
     14  CB        15.1270  113.6950  163.4190 C.3    69  MET69       0.0387
     15  CG        16.6160  113.6690  163.0370 C.3    69  MET69       0.0595
     16  SD        16.9680  112.5640  161.7030 S.3    69  MET69      -0.1393
     17  CE        16.8470  110.9410  162.5690 C.3    69  MET69       0.0692
     18  N         21.6520  114.6710  162.0390 N.3    72  LEU72      -0.1245
     19  CA        22.3280  113.3870  162.0750 C.3    72  LEU72       0.1561
     20  C         23.4960  113.4430  163.0300 C.2    72  LEU72       0.2260
     21  O         23.9400  112.4070  163.5180 O.2    72  LEU72      -0.2867
     22  CB        22.7880  112.9630  160.6830 C.3    72  LEU72       0.0270
     23  CG        21.8860  112.0360  159.8670 C.3    72  LEU72       0.0019
     24  CD1       20.4340  112.1150  160.2780 C.3    72  LEU72       0.0001
     25  CD2       22.0430  112.3030  158.3980 C.3    72  LEU72       0.0001
     26  N         21.8050  112.6810  166.3250 N.3    75  GLU75      -0.1245
     27  CA        21.5880  111.2320  166.2710 C.3    75  GLU75       0.1567
     28  C         22.8680  110.4590  166.5730 C.2    75  GLU75       0.2260
     29  O         22.8370  109.4910  167.3160 O.2    75  GLU75      -0.2867
     30  CB        21.0250  110.8180  164.8940 C.3    75  GLU75       0.0388
     31  CG        20.8280  109.3070  164.6840 C.3    75  GLU75       0.1160
     32  CD        19.5710  108.7350  165.3250 C.2    75  GLU75       0.3649
     33  OE1       18.8790  109.4520  166.1170 O.co2  75  GLU75      -0.2457
     34  OE2       19.2670  107.5450  165.0220 O.co2  75  GLU75      -0.2457
     35  N         23.3670  107.9660  169.8070 N.3    79  LEU79      -0.1245
     36  CA        23.7390  106.5590  169.6530 C.3    79  LEU79       0.1561
     37  C         25.0360  106.2190  170.4010 C.2    79  LEU79       0.2260
     38  O         25.1220  105.1780  171.0430 O.2    79  LEU79      -0.2867
     39  CB        23.8680  106.1730  168.1720 C.3    79  LEU79       0.0270
     40  CG        22.6180  106.2980  167.2870 C.3    79  LEU79       0.0019
     41  CD1       22.8270  105.5560  165.9740 C.3    79  LEU79       0.0001
     42  CD2       21.3620  105.7910  168.0070 C.3    79  LEU79       0.0001
     43  N         19.4710   99.0450  170.3230 N.3    91  ILE91      -0.1245
     44  CA        19.5130   98.3690  169.0340 C.3    91  ILE91       0.1561
     45  C         18.1130   98.3390  168.3990 C.2    91  ILE91       0.2260
     46  O         17.9740   98.5580  167.1990 O.2    91  ILE91      -0.2867
     47  CB        20.1430   96.9460  169.1700 C.3    91  ILE91       0.0252
     48  CG1       20.4610   96.3520  167.7980 C.3    91  ILE91       0.0019
     49  CG2       19.2290   96.0070  169.9360 C.3    91  ILE91       0.0019
     50  CD1       21.5320   97.0480  167.0550 C.3    91  ILE91       0.0001
     51  N         17.2120  101.7980  166.8860 N.3    94  VAL94      -0.1231
     52  CA        17.9870  101.9640  165.7010 C.3    94  VAL94       0.1692
     53  C         17.4780  101.0580  164.5370 C.2    94  VAL94       0.2591
     54  O         17.4090  101.4900  163.3870 O.2    94  VAL94      -0.2718
     55  CB        19.4450  101.6990  166.1360 C.3    94  VAL94       0.0266
     56  CG1       20.2020  101.0940  165.1060 C.3    94  VAL94       0.0020
     57  CG2       20.0650  102.9830  166.6150 C.3    94  VAL94       0.0020
     58  N         17.1260   99.8140  164.8470 N.am   95  ALA95      -0.1980
     59  CA        16.5040   98.9070  163.8830 C.3    95  ALA95       0.1597
     60  C         15.1720   99.4830  163.3550 C.2    95  ALA95       0.2287
     61  O         14.8830   99.4090  162.1570 O.2    95  ALA95      -0.2864
     62  CB        16.2570   97.5750  164.5330 C.3    95  ALA95       0.0319
     63  N         14.5010  102.7320  163.2440 N.3    97  ALA97      -0.1231
     64  CA        14.8430  103.8710  162.4000 C.3    97  ALA97       0.1694
     65  C         15.1930  103.4160  160.9870 C.2    97  ALA97       0.2591
     66  O         14.8110  104.0660  160.0090 O.2    97  ALA97      -0.2718
     67  CB        15.9750  104.6850  163.0160 C.3    97  ALA97       0.0304
     68  N         15.8720  102.2790  160.8750 N.am   98  LEU98      -0.1980
     69  CA        16.2190  101.7380  159.5750 C.3    98  LEU98       0.1596
     70  C         14.9250  101.3390  158.8470 C.2    98  LEU98       0.2287
     71  O         14.7500  101.6160  157.6680 O.2    98  LEU98      -0.2864
     72  CB        17.1400  100.5160  159.7270 C.3    98  LEU98       0.0297
     73  CG        18.1810  100.1410  158.6700 C.3    98  LEU98       0.0022
     74  CD1       18.3250   98.6380  158.5400 C.3    98  LEU98       0.0001
     75  CD2       17.9960  100.8150  157.3250 C.3    98  LEU98       0.0001
     76  N         13.1120  104.2400  157.3450 N.3   101  MET101     -0.1245
     77  CA        13.8600  105.0730  156.4070 C.3   101  MET101      0.1570
     78  C         13.3350  105.0460  154.9700 C.2   101  MET101      0.2261
     79  O         13.2110  106.1090  154.3710 O.2   101  MET101     -0.2867
     80  CB        15.3580  104.7150  156.3940 C.3   101  MET101      0.0387
     81  CG        16.1220  105.1610  157.6090 C.3   101  MET101      0.0595
     82  SD        17.8160  105.7310  157.2350 S.3   101  MET101     -0.1393
     83  CE        18.7590  104.4850  158.0490 C.3   101  MET101      0.0692
     84  N         10.3380  107.3690  155.0810 N.3   104  ILE104     -0.1245
     85  CA        10.7910  108.7650  155.2290 C.3   104  ILE104      0.1561
     86  C         11.3550  109.3420  153.9360 C.2   104  ILE104      0.2260
     87  O         11.1460  110.5220  153.6170 O.2   104  ILE104     -0.2867
     88  CB        11.8450  108.8390  156.3400 C.3   104  ILE104      0.0252
     89  CG1       11.1580  108.6640  157.7030 C.3   104  ILE104      0.0019
     90  CG2       12.6480  110.1680  156.2840 C.3   104  ILE104      0.0019
     91  CD1       12.1220  108.2840  158.8210 C.3   104  ILE104      0.0001
     92  N         17.7550   91.1680  154.3490 N.3   133  SER133     -0.1217
     93  CA        18.6240   90.0040  154.4430 C.3   133  SER133      0.1889
     94  C         17.8850   88.6720  154.3570 C.2   133  SER133      0.2288
     95  O         16.6890   88.5710  154.7110 O.2   133  SER133     -0.2866
     96  CB        19.3940   90.0560  155.7490 C.3   133  SER133      0.2089
     97  OG        20.2770   91.1670  155.7780 O.3   133  SER133     -0.2183
     98  N         16.0870   93.0220  161.9150 N.3   170  SER170     -0.1217
     99  CA        15.7600   93.2870  163.3070 C.3   170  SER170      0.1889
    100  C         14.2920   93.6760  163.4630 C.2   170  SER170      0.2288
    101  O         13.7520   94.3840  162.6240 O.2   170  SER170     -0.2866
    102  CB        16.6020   94.4400  163.8130 C.3   170  SER170      0.2089
    103  OG        17.9580   94.3250  163.4180 O.3   170  SER170     -0.2183
    104  N         20.3850  102.1830  153.6390 N.3   272  PHE272     -0.1241
    105  CA        21.5310  101.4270  154.1170 C.3   272  PHE272      0.1605
    106  C         22.8500  102.2380  154.0800 C.2   272  PHE272      0.2264
    107  O         23.7990  101.9000  154.7780 O.2   272  PHE272     -0.2867
    108  CB        21.6730  100.1140  153.3440 C.3   272  PHE272      0.0534
    109  CG        20.8960   98.9670  153.9360 C.ar  272  PHE272     -0.0203
    110  CD1       19.8080   98.4270  153.2700 C.ar  272  PHE272     -0.0042
    111  CD2       21.2700   98.4060  155.1630 C.ar  272  PHE272     -0.0042
    112  CE1       19.0980   97.3490  153.8220 C.ar  272  PHE272     -0.0003
    113  CE2       20.5700   97.3340  155.7080 C.ar  272  PHE272     -0.0003
    114  CZ        19.4790   96.8150  155.0380 C.ar  272  PHE272     -0.0000
    115  N         22.7310  105.4870  154.9610 N.3   274  MET274     -0.1230
    116  CA        22.4800  106.2500  156.1790 C.3   274  MET274      0.1702
    117  C         22.9030  105.4170  157.3760 C.2   274  MET274      0.2593
    118  O         23.5860  105.9030  158.2700 O.2   274  MET274     -0.2718
    119  CB        20.9960  106.6020  156.3110 C.3   274  MET274      0.0401
    120  CG        20.4870  107.6200  155.3010 C.3   274  MET274      0.0596
    121  SD        21.0770  109.2440  155.7300 S.3   274  MET274     -0.1393
    122  CE        19.7420  109.7860  156.7940 C.3   274  MET274      0.0692
    123  N         22.4850  104.1600  157.3980 N.am  275  SER275     -0.1952
    124  CA        22.8420  103.2630  158.4860 C.3   275  SER275      0.1924
    125  C         24.3660  103.0330  158.5300 C.2   275  SER275      0.2314
    126  O         24.9460  102.9520  159.6080 O.2   275  SER275     -0.2863
    127  CB        22.0650  101.9450  158.3950 C.3   275  SER275      0.2116
    128  OG        22.3830  101.1950  157.2210 O.3   275  SER275     -0.2180
    129  N         25.9630  105.8110  160.5020 N.3   278  LEU278     -0.1231
    130  CA        25.5710  105.9470  161.9070 C.3   278  LEU278      0.1693
    131  C         25.9380  104.7550  162.7760 C.2   278  LEU278      0.2591
    132  O         26.0320  104.8800  163.9950 O.2   278  LEU278     -0.2718
    133  CB        24.0760  106.2560  161.9880 C.3   278  LEU278      0.0284
    134  CG        23.8210  107.7260  161.6420 C.3   278  LEU278      0.0019
    135  CD1       22.4510  107.9300  161.0190 C.3   278  LEU278      0.0001
    136  CD2       24.0040  108.5760  162.8960 C.3   278  LEU278      0.0001
    137  N         26.1800  103.6050  162.1600 N.am  279  VAL279     -0.1980
    138  CA        26.6060  102.4140  162.8790 C.3   279  VAL279      0.1595
    139  C         27.9680  102.6630  163.5440 C.2   279  VAL279      0.2287
    140  O         28.2590  102.1220  164.5980 O.2   279  VAL279     -0.2864
    141  CB        26.6140  101.1810  161.9400 C.3   279  VAL279      0.0276
    142  CG1       27.6870  100.2070  162.2920 C.3   279  VAL279      0.0022
    143  CG2       25.2620  100.5020  162.0020 C.3   279  VAL279      0.0022
    144  N         27.5590  103.5320  167.0610 N.3   282  MET282     -0.1245
    145  CA        27.2930  102.3590  167.8930 C.3   282  MET282      0.1570
    146  C         28.6000  101.6280  168.2580 C.2   282  MET282      0.2261
    147  O         28.8430  101.2970  169.4240 O.2   282  MET282     -0.2867
    148  CB        26.3350  101.3920  167.1730 C.3   282  MET282      0.0387
    149  CG        24.9420  101.9800  166.8540 C.3   282  MET282      0.0595
    150  SD        24.0360  101.0450  165.5970 S.3   282  MET282     -0.1393
    151  CE        24.1530   99.4810  166.2090 C.3   282  MET282      0.0692
    152  N         27.5870   93.0320  160.5280 N.3   400  PHE400     -0.1227
    153  CA        26.2040   93.4230  160.2850 C.3   400  PHE400      0.1736
    154  C         26.1250   94.7170  159.4780 C.2   400  PHE400      0.2595
    155  O         27.1550   95.2470  159.0680 O.2   400  PHE400     -0.2718
    156  CB        25.4200   93.4480  161.6340 C.3   400  PHE400      0.0547
    157  CG        25.3480   94.7800  162.3260 C.ar  400  PHE400     -0.0202
    158  CD1       24.2140   95.0950  163.0920 C.ar  400  PHE400     -0.0042
    159  CD2       26.3960   95.6820  162.2920 C.ar  400  PHE400     -0.0042
    160  CE1       24.1140   96.2810  163.7480 C.ar  400  PHE400     -0.0003
    161  CE2       26.3070   96.8810  162.9520 C.ar  400  PHE400     -0.0003
    162  CZ        25.1810   97.1850  163.7030 C.ar  400  PHE400     -0.0000
    163  N         24.9050   95.1960  159.2380 N.am  401  ASP401     -0.1960
    164  CA        24.6510   96.4140  158.4750 C.3   401  ASP401      0.1840
    165  C         25.4160   96.4250  157.1640 C.2   401  ASP401      0.2622
    166  O         25.9640   97.4530  156.7480 O.2   401  ASP401     -0.2715
    167  CB        25.0040   97.6640  159.2780 C.3   401  ASP401      0.1450
    168  CG        24.4430   98.9350  158.6510 C.2   401  ASP401      0.3671
    169  OD1       25.2200   99.9120  158.4790 O.co2 401  ASP401     -0.2456
    170  OD2       23.2450   99.0430  158.2940 O.co2 401  ASP401     -0.2456
    171  N         25.4070   95.2920  156.4910 N.am  402  GLY402     -0.1954
    172  CA        26.2370   95.1250  155.3260 C.3   402  GLY402      0.1869
    173  C         27.6530   94.9250  155.7940 C.2   402  GLY402      0.2309
    174  O         28.3540   95.8790  156.1430 O.2   402  GLY402     -0.2863
@<TRIPOS>BOND
     1   110   112   ar
     2   110   109   ar
     3   108   109    1
     4   108   105    1
     5    87    86    2
     6   104   105    1
     7   112   114   ar
     8    86    85    1
     9   109   111   ar
    10   106   105    1
    11   106   107    2
    12    92    93    1
    13    94    93    1
    14    94    95    2
    15    79    78    2
    16    93    96    1
    17   115   116    1
    18    78    77    1
    19   114   113   ar
    20    84    85    1
    21   111   113   ar
    22    85    88    1
    23   120   121    1
    24   120   119    1
    25   172   173    1
    26   172   171    1
    27   121   122    1
    28    96    97    1
    29   173   174    2
    30   116   119    1
    31   116   117    1
    32    90    88    1
    33    88    89    1
    34    80    77    1
    35    80    81    1
    36    77    76    1
    37   171   165   am
    38   166   165    2
    39   165   164    1
    40   128   127    1
    41    82    81    1
    42    82    83    1
    43    75    73    1
    44   117   123   am
    45   117   118    2
    46   123   124    1
    47    71    70    2
    48    89    91    1
    49   170   168   ar
    50   127   124    1
    51    25    23    1
    52   164   163    1
    53   164   167    1
    54   169   168   ar
    55   124   125    1
    56   125   126    2
    57    74    73    1
    58   168   167    1
    59    73    72    1
    60    70    69    1
    61   155   154    2
    62   163   154   am
    63   154   153    1
    64    69    72    1
    65    69    68    1
    66    23    24    1
    67    23    22    1
    68    66    65    2
    69   153   152    1
    70   153   156    1
    71   129   130    1
    72    22    19    1
    73    68    65   am
    74    65    64    1
    75   135   134    1
    76   156   157    1
    77   134   133    1
    78   134   136    1
    79    16    17    1
    80    16    15    1
    81   130   133    1
    82   130   131    1
    83    98    99    1
    84   141   143    1
    85   141   142    1
    86   141   138    1
    87    18    19    1
    88    19    20    1
    89     4     3    2
    90    61    60    2
    91   137   131   am
    92   137   138    1
    93   159   157   ar
    94   159   161   ar
    95   157   158   ar
    96    64    67    1
    97    64    63    1
    98   101   100    2
    99   131   132    2
   100   138   139    1
   101   161   162   ar
   102    20    21    2
   103    15    14    1
   104   158   160   ar
   105     3     2    1
   106    99   100    1
   107    99   102    1
   108    60    59    1
   109    54    53    2
   110   103   102    1
   111    14    11    1
   112    13    12    2
   113   139   140    2
   114   162   160   ar
   115    59    62    1
   116    59    58    1
   117    12    11    1
   118     2     5    1
   119     2     1    1
   120    53    58   am
   121    53    52    1
   122     5     6    1
   123    11    10    1
   124    31    30    1
   125    31    32    1
   126    30    27    1
   127    34    32   ar
   128     9     7   am
   129    56    55    1
   130    32    33   ar
   131   150   151    1
   132   150   149    1
   133    52    55    1
   134    52    51    1
   135     6     7    1
   136    41    40    1
   137     7     8    2
   138    55    57    1
   139    27    26    1
   140    27    28    1
   141    28    29    2
   142   149   148    1
   143    50    48    1
   144   144   145    1
   145   148   145    1
   146    46    45    2
   147    40    42    1
   148    40    39    1
   149    48    47    1
   150   145   146    1
   151    39    36    1
   152   146   147    2
   153    45    44    1
   154    44    47    1
   155    44    43    1
   156    47    49    1
   157    36    35    1
   158    36    37    1
   159    37    38    2
