@<TRIPOS>MOLECULE
tmp/2c16B01.pdb
 82 77 0 0 0
SMALL
GASTEIGER

@<TRIPOS>ATOM
      1  N        101.6500   18.8320  -26.5440 N.3    50  GLU50      -0.1245
      2  CA       102.7220   17.9460  -26.0950 C.3    50  GLU50       0.1567
      3  C        103.2880   18.5010  -24.8010 C.2    50  GLU50       0.2260
      4  O        103.4320   19.7120  -24.6890 O.2    50  GLU50      -0.2867
      5  CB       103.8450   17.8990  -27.1440 C.3    50  GLU50       0.0388
      6  CG       103.3770   17.4670  -28.5520 C.3    50  GLU50       0.1160
      7  CD       104.4870   17.5380  -29.5970 C.2    50  GLU50       0.3649
      8  OE1      105.6170   18.0170  -29.2580 O.co2  50  GLU50      -0.2457
      9  OE2      104.2020   17.1640  -30.7690 O.co2  50  GLU50      -0.2457
     10  N        103.7170   22.3310  -25.7300 N.3    60  ARG60      -0.1245
     11  CA       103.8750   22.8390  -27.0810 C.3    60  ARG60       0.1563
     12  C        102.4740   22.6350  -27.6770 C.2    60  ARG60       0.2260
     13  O        101.8560   21.5740  -27.4540 O.2    60  ARG60      -0.2867
     14  CB       104.9120   22.0360  -27.8890 C.3    60  ARG60       0.0307
     15  CG       106.2250   21.6400  -27.1890 C.3    60  ARG60       0.0489
     16  CD       107.1660   20.8880  -28.1680 C.3    60  ARG60       0.2205
     17  NE       108.3500   20.3990  -27.4520 N.pl3  60  ARG60      -0.0865
     18  CZ       108.4310   19.2020  -26.8930 C.cat  60  ARG60       0.5346
     19  NH1      107.4130   18.3360  -27.0150 N.pl3  60  ARG60       0.1354
     20  NH2      109.5100   18.8630  -26.2190 N.pl3  60  ARG60       0.1354
     21  N        108.2310   25.7140  -33.0250 N.3    86  VAL86      -0.1231
     22  CA       108.9910   24.4770  -32.8950 C.3    86  VAL86       0.1692
     23  C        109.1350   24.0050  -34.3360 C.2    86  VAL86       0.2592
     24  O        108.2270   23.3810  -34.8750 O.2    86  VAL86      -0.2718
     25  CB       108.2110   23.4530  -32.0430 C.3    86  VAL86       0.0266
     26  CG1      109.0090   22.1440  -31.8640 C.3    86  VAL86       0.0020
     27  CG2      107.9130   24.0490  -30.6750 C.3    86  VAL86       0.0020
     28  N        110.2480   24.3700  -34.9570 N.am   87  THR87      -0.1953
     29  CA       110.4690   24.1580  -36.4000 C.3    87  THR87       0.1897
     30  C        110.7260   22.6720  -36.7560 C.2    87  THR87       0.2313
     31  O        111.6360   22.0630  -36.2030 O.2    87  THR87      -0.2863
     32  CB       111.6870   24.9770  -36.8790 C.3    87  THR87       0.1794
     33  OG1      111.5150   26.3530  -36.5120 O.3    87  THR87      -0.2208
     34  CG2      111.8850   24.8680  -38.4020 C.3    87  THR87       0.0378
     35  N        112.3470   19.5060  -38.4740 N.3    89  VAL89      -0.1245
     36  CA       113.7620   19.4260  -38.8620 C.3    89  VAL89       0.1561
     37  C        113.9630   19.6040  -40.3720 C.2    89  VAL89       0.2260
     38  O        114.9870   20.1510  -40.7860 O.2    89  VAL89      -0.2867
     39  CB       114.5260   18.1680  -38.2970 C.3    89  VAL89       0.0252
     40  CG1      114.1630   17.9130  -36.8300 C.3    89  VAL89       0.0019
     41  CG2      114.2830   16.9120  -39.1450 C.3    89  VAL89       0.0019
     42  N        115.9830   24.2260  -24.9080 N.3   212  ARG212     -0.1231
     43  CA       116.4300   23.3050  -25.9530 C.3   212  ARG212      0.1694
     44  C        115.4620   22.1290  -26.0620 C.2   212  ARG212      0.2592
     45  O        115.1540   21.6720  -27.1620 O.2   212  ARG212     -0.2718
     46  CB       117.8630   22.7600  -25.6570 C.3   212  ARG212      0.0321
     47  CG       119.0630   23.7540  -25.7880 C.3   212  ARG212      0.0489
     48  CD       118.6550   25.2000  -25.4930 C.3   212  ARG212      0.2205
     49  NE       119.7800   26.1210  -25.3200 N.pl3 212  ARG212     -0.0865
     50  CZ       120.0360   27.1670  -26.1100 C.cat 212  ARG212      0.5346
     51  NH1      119.2610   27.4300  -27.1670 N.pl3 212  ARG212      0.1354
     52  NH2      121.0750   27.9520  -25.8360 N.pl3 212  ARG212      0.1354
     53  N        114.9980   21.6330  -24.9130 N.am  213  ASP213     -0.1960
     54  CA       114.0760   20.5170  -24.8870 C.3   213  ASP213      0.1840
     55  C        112.7050   20.9360  -25.4320 C.2   213  ASP213      0.2622
     56  O        111.9770   20.1220  -26.0130 O.2   213  ASP213     -0.2715
     57  CB       113.9480   19.9610  -23.4690 C.3   213  ASP213      0.1450
     58  CG       113.2660   18.5900  -23.4300 C.2   213  ASP213      0.3671
     59  OD1      113.6420   17.6970  -24.2150 O.co2 213  ASP213     -0.2456
     60  OD2      112.3710   18.4130  -22.5910 O.co2 213  ASP213     -0.2456
     61  N        112.3570   22.2020  -25.2440 N.am  214  ALA214     -0.1963
     62  CA       111.0960   22.7350  -25.7600 C.3   214  ALA214      0.1728
     63  C        111.0720   22.8500  -27.2780 C.2   214  ALA214      0.2616
     64  O        110.1130   22.3850  -27.9080 O.2   214  ALA214     -0.2715
     65  CB       110.7960   24.0730  -25.1350 C.3   214  ALA214      0.0334
     66  N        112.0980   23.4930  -27.8500 N.am  215  VAL215     -0.1963
     67  CA       112.1240   23.7780  -29.2890 C.3   215  VAL215      0.1727
     68  C        112.8400   22.7120  -30.1190 C.2   215  VAL215      0.2617
     69  O        112.9200   22.8240  -31.3490 O.2   215  VAL215     -0.2715
     70  CB       112.7250   25.1700  -29.6120 C.3   215  VAL215      0.0290
     71  CG1      111.8810   26.2780  -28.9810 C.3   215  VAL215      0.0023
     72  CG2      114.2190   25.2510  -29.2070 C.3   215  VAL215      0.0023
     73  N        113.3590   21.6900  -29.4450 N.am  216  GLY216     -0.1940
     74  CA       114.0420   20.5860  -30.0980 C.3   216  GLY216      0.2014
     75  C        115.4380   20.8840  -30.6110 C.2   216  GLY216      0.2639
     76  O        115.8200   20.3860  -31.6810 O.2   216  GLY216     -0.2714
     77  N        116.2240   21.6480  -29.8570 N.am  217  SER217     -0.1949
     78  CA       117.6140   21.8850  -30.2230 C.3   217  SER217      0.1924
     79  C        118.5730   21.3130  -29.1820 C.2   217  SER217      0.2314
     80  O        119.6180   20.7490  -29.5260 O.2   217  SER217     -0.2863
     81  CB       117.8690   23.3760  -30.4230 C.3   217  SER217      0.2116
     82  OG       117.4960   24.1080  -29.2710 O.3   217  SER217     -0.2180
@<TRIPOS>BOND
     1    38    37    2
     2    37    36    1
     3    41    39    1
     4    36    35    1
     5    36    39    1
     6    34    32    1
     7    39    40    1
     8    32    33    1
     9    32    29    1
    10    30    29    1
    11    30    31    2
    12    29    28    1
    13    28    23   am
    14    24    23    2
    15    23    22    1
    16    21    22    1
    17    22    25    1
    18    25    26    1
    19    25    27    1
    20    76    75    2
    21    69    68    2
    22     9     7   ar
    23    75    74    1
    24    75    77   am
    25    81    78    1
    26    81    82    1
    27    78    77    1
    28    78    79    1
    29    68    73   am
    30    68    67    1
    31    74    73    1
    32    70    67    1
    33    70    72    1
    34    70    71    1
    35     7     8   ar
    36     7     6    1
    37    80    79    2
    38    67    66    1
    39     6     5    1
    40    16    17    1
    41    16    15    1
    42    64    63    2
    43    14    15    1
    44    14    11    1
    45    66    63   am
    46    12    13    2
    47    12    11    1
    48    17    18    2
    49    63    62    1
    50    51    50    1
    51    45    44    2
    52     5     2    1
    53    11    10    1
    54    19    18    1
    55    18    20    1
    56     1     2    1
    57    50    52    1
    58    50    49    2
    59     2     3    1
    60    44    43    1
    61    44    53   am
    62    56    55    2
    63    43    46    1
    64    43    42    1
    65    47    46    1
    66    47    48    1
    67    62    61    1
    68    62    65    1
    69    48    49    1
    70    55    61   am
    71    55    54    1
    72    53    54    1
    73    54    57    1
    74     3     4    2
    75    59    58   ar
    76    57    58    1
    77    58    60   ar
