@<TRIPOS>MOLECULE
tmp/2c1aA00.pdb
 196 187 0 0 0
SMALL
GASTEIGER

@<TRIPOS>ATOM
      1  N          9.0550   15.5530    8.1230 N.3    36  LEU36      -0.1231
      2  CA         8.8510   14.1240    8.3340 C.3    36  LEU36       0.1693
      3  C         10.0790   13.3330    7.8870 C.2    36  LEU36       0.2593
      4  O         10.2570   12.2150    8.3160 O.2    36  LEU36      -0.2718
      5  CB         7.6640   13.6280    7.5070 C.3    36  LEU36       0.0284
      6  CG         6.2910   14.2740    7.7780 C.3    36  LEU36       0.0019
      7  CD1        5.3180   13.9310    6.6460 C.3    36  LEU36       0.0001
      8  CD2        5.7670   13.7460    9.0770 C.3    36  LEU36       0.0001
      9  N         10.8860   13.9080    7.0060 N.am   37  GLY37      -0.1942
     10  CA        12.0500   13.2020    6.4840 C.3    37  GLY37       0.2014
     11  C         12.9120   14.1350    5.6800 C.2    37  GLY37       0.2640
     12  O         12.4330   15.1310    5.1570 O.2    37  GLY37      -0.2714
     13  N         14.1860   13.7850    5.5520 N.am   38  THR38      -0.1936
     14  CA        15.1740   14.6720    4.9630 C.3    38  THR38       0.2028
     15  C         16.1500   13.8970    4.0880 C.2    38  THR38       0.2643
     16  O         16.5260   12.7630    4.4020 O.2    38  THR38      -0.2714
     17  CB        15.8840   15.4310    6.1280 C.3    38  THR38       0.1808
     18  OG1       15.6690   16.8480    5.9890 O.3    38  THR38      -0.2208
     19  CG2       17.3950   15.2290    6.1290 C.3    38  THR38       0.0379
     20  N         16.5760   14.5320    2.9990 N.am   39  GLY39      -0.1939
     21  CA        17.3570   13.8770    1.9620 C.3    39  GLY39       0.2014
     22  C         18.4620   14.7720    1.4510 C.2    39  GLY39       0.2640
     23  O         18.6020   15.8940    1.8990 O.2    39  GLY39      -0.2714
     24  N         19.2270   14.2470    0.4950 N.am   40  SER40      -0.1935
     25  CA        20.3830   14.9320   -0.0760 C.3    40  SER40       0.2055
     26  C         19.9740   16.1580   -0.8910 C.2    40  SER40       0.2643
     27  O         20.6470   17.1990   -0.8500 O.2    40  SER40      -0.2714
     28  CB        21.1610   13.9690   -0.9630 C.3    40  SER40       0.2130
     29  OG        21.6730   12.8900   -0.2110 O.3    40  SER40      -0.2179
     30  N         18.8820   16.0290   -1.6390 N.am   41  PHE41      -0.1959
     31  CA        18.3760   17.1390   -2.4380 C.3    41  PHE41       0.1774
     32  C         16.9690   17.6640   -2.0380 C.2    41  PHE41       0.2659
     33  O         16.4340   18.5610   -2.6850 O.2    41  PHE41      -0.2711
     34  CB        18.4920   16.8230   -3.9320 C.3    41  PHE41       0.0574
     35  CG        17.8940   15.5000   -4.3550 C.ar   41  PHE41      -0.0200
     36  CD1       18.7110   14.4110   -4.6670 C.ar   41  PHE41      -0.0042
     37  CD2       16.5150   15.3600   -4.5090 C.ar   41  PHE41      -0.0042
     38  CE1       18.1630   13.1910   -5.0960 C.ar   41  PHE41      -0.0003
     39  CE2       15.9570   14.1530   -4.9350 C.ar   41  PHE41      -0.0003
     40  CZ        16.7780   13.0680   -5.2300 C.ar   41  PHE41      -0.0000
     41  N         16.4120   17.1660   -0.9360 N.am   42  GLY42      -0.1716
     42  CA        15.1570   17.7090   -0.4490 C.2    42  GLY42       0.1480
     43  C         14.6880   17.2010    0.8950 C.2    42  GLY42       0.2820
     44  O         15.4180   16.5680    1.6470 O.2    42  GLY42      -0.2669
     45  N         13.4350   17.4910    1.1950 N.am   43  ARG43      -0.1929
     46  CA        12.7990   17.0410    2.4330 C.3    43  ARG43       0.1732
     47  C         11.3120   16.7590    2.1920 C.2    43  ARG43       0.2616
     48  O         10.7500   17.2330    1.1920 O.2    43  ARG43      -0.2715
     49  CB        12.9510   18.1080    3.4980 C.3    43  ARG43       0.0348
     50  CG        12.5840   19.5120    3.0300 C.3    43  ARG43       0.0492
     51  CD        13.4200   20.6170    3.6640 C.3    43  ARG43       0.2205
     52  NE        13.1170   20.7600    5.0860 N.pl3  43  ARG43      -0.0865
     53  CZ        13.9830   20.6010    6.1060 C.cat  43  ARG43       0.5346
     54  NH1       15.2660   20.2870    5.9180 N.pl3  43  ARG43       0.1354
     55  NH2       13.5460   20.7580    7.3480 N.pl3  43  ARG43       0.1354
     56  N         10.6870   15.9970    3.0850 N.am   44  VAL44      -0.1977
     57  CA         9.2200   15.8120    3.0480 C.3    44  VAL44       0.1596
     58  C          8.6280   16.4780    4.2990 C.2    44  VAL44       0.2287
     59  O          9.1380   16.2640    5.3850 O.2    44  VAL44      -0.2864
     60  CB         8.8350   14.3190    2.9260 C.3    44  VAL44       0.0276
     61  CG1        7.2980   14.1300    3.1660 C.3    44  VAL44       0.0022
     62  CG2        9.1730   13.8230    1.5460 C.3    44  VAL44       0.0022
     63  N          1.6450   14.9660    2.7410 N.3    57  ALA57      -0.1245
     64  CA         3.1180   14.9270    2.8140 C.3    57  ALA57       0.1562
     65  C          3.6650   15.5810    1.5530 C.2    57  ALA57       0.2260
     66  O          3.4580   15.0700    0.4460 O.2    57  ALA57      -0.2867
     67  CB         3.5770   13.5120    2.9270 C.3    57  ALA57       0.0290
     68  N          6.7630   16.7470   -0.6170 N.3    59  LYS59      -0.1245
     69  CA         8.1840   16.5190   -0.9320 C.3    59  LYS59       0.1561
     70  C          8.6660   17.7440   -1.6870 C.2    59  LYS59       0.2260
     71  O          8.1010   18.1360   -2.6870 O.2    59  LYS59      -0.2867
     72  CB         8.3280   15.2580   -1.7620 C.3    59  LYS59       0.0271
     73  CG         9.6990   14.9940   -2.3470 C.3    59  LYS59       0.0035
     74  CD         9.8040   13.4650   -2.5370 C.3    59  LYS59       0.0206
     75  CE        10.8620   13.0320   -3.4760 C.3    59  LYS59       0.1093
     76  NZ        10.8770   11.5670   -3.4230 N.3    59  LYS59      -0.1314
     77  N         11.8970   19.4410   -3.4080 N.3    61  LEU61      -0.1245
     78  CA        13.2280   19.1990   -3.9390 C.3    61  LEU61       0.1561
     79  C         13.8580   20.4910   -4.3980 C.2    61  LEU61       0.2260
     80  O         13.2530   21.2460   -5.1350 O.2    61  LEU61      -0.2867
     81  CB        13.1530   18.2550   -5.1130 C.3    61  LEU61       0.0270
     82  CG        12.4220   16.9300   -4.8690 C.3    61  LEU61       0.0019
     83  CD1       12.5170   16.1120   -6.1630 C.3    61  LEU61       0.0001
     84  CD2       13.0040   16.1780   -3.6840 C.3    61  LEU61       0.0001
     85  N          1.4280    5.0950   -2.6300 N.3    91  VAL91      -0.1245
     86  CA         1.0830    6.4530   -2.1950 C.3    91  VAL91       0.1561
     87  C          0.6420    7.2810   -3.3880 C.2    91  VAL91       0.2260
     88  O          1.2510    7.2630   -4.4720 O.2    91  VAL91      -0.2867
     89  CB         2.2530    7.1730   -1.4180 C.3    91  VAL91       0.0252
     90  CG1        1.9410    8.6360   -1.1590 C.3    91  VAL91       0.0019
     91  CG2        2.4690    6.5350   -0.1030 C.3    91  VAL91       0.0019
     92  N          1.6940   14.5220   -1.7360 N.3   107  MET107     -0.1230
     93  CA         1.2130   13.1760   -1.6620 C.3   107  MET107      0.1702
     94  C          0.3520   13.0260   -0.4460 C.2   107  MET107      0.2592
     95  O          0.4280   13.8080    0.4990 O.2   107  MET107     -0.2718
     96  CB         2.3940   12.1960   -1.5550 C.3   107  MET107      0.0401
     97  CG         3.3060   12.2420   -2.8130 C.3   107  MET107      0.0596
     98  SD         4.8110   11.3480   -2.5210 S.3   107  MET107     -0.1393
     99  CE         5.7830   12.6370   -2.0330 C.3   107  MET107      0.0692
    100  N         -0.4410   11.9670   -0.4790 N.am  108  GLU108     -0.1966
    101  CA        -1.2080   11.4900    0.6650 C.3   108  GLU108      0.1733
    102  C         -0.3310   11.2970    1.9330 C.2   108  GLU108      0.2616
    103  O          0.7740   10.7180    1.8540 O.2   108  GLU108     -0.2715
    104  CB        -1.8390   10.1910    0.1560 C.3   108  GLU108      0.0429
    105  CG        -2.7190    9.3660    1.0370 C.3   108  GLU108      0.1163
    106  CD        -3.3270    8.2280    0.2060 C.2   108  GLU108      0.3649
    107  OE1       -2.6110    7.5910   -0.6790 O.co2 108  GLU108     -0.2457
    108  OE2       -4.5280    8.0030    0.4180 O.co2 108  GLU108     -0.2457
    109  N         -0.7860   11.8260    3.0790 N.am  109  TYR109     -0.1960
    110  CA        -0.0910   11.6470    4.3560 C.3   109  TYR109      0.1771
    111  C         -0.4570   10.3180    5.0050 C.2   109  TYR109      0.2619
    112  O         -1.6280    9.9770    5.1900 O.2   109  TYR109     -0.2715
    113  CB        -0.3550   12.8080    5.3100 C.3   109  TYR109      0.0574
    114  CG         0.2640   12.6670    6.6760 C.ar  109  TYR109     -0.0198
    115  CD1        1.6300   12.3860    6.8130 C.ar  109  TYR109     -0.0009
    116  CD2       -0.5020   12.7920    7.8390 C.ar  109  TYR109     -0.0009
    117  CE1        2.2150   12.2690    8.0420 C.ar  109  TYR109      0.0417
    118  CE2        0.0840   12.6460    9.1080 C.ar  109  TYR109      0.0417
    119  CZ         1.4430   12.3870    9.2060 C.ar  109  TYR109      0.1957
    120  OH         2.0870   12.2440   10.4310 O.3   109  TYR109     -0.2866
    121  N          0.5620    9.5330    5.3330 N.am  110  VAL110     -0.1977
    122  CA         0.3650    8.2340    5.9620 C.3   110  VAL110      0.1596
    123  C          0.9500    8.3080    7.3860 C.2   110  VAL110      0.2287
    124  O          2.1730    8.0720    7.6040 O.2   110  VAL110     -0.2864
    125  CB         1.0390    7.1500    5.1590 C.3   110  VAL110      0.0276
    126  CG1        0.7490    5.7730    5.7500 C.3   110  VAL110      0.0022
    127  CG2        0.6340    7.2210    3.6690 C.3   110  VAL110      0.0022
    128  N          6.9400    4.7870    8.8590 N.3   114  GLU114     -0.1245
    129  CA         7.6270    3.7860    8.0180 C.3   114  GLU114      0.1567
    130  C          7.6600    2.4450    8.6830 C.2   114  GLU114      0.2260
    131  O          7.8100    2.3600    9.9050 O.2   114  GLU114     -0.2867
    132  CB         9.0670    4.2410    7.7740 C.3   114  GLU114      0.0388
    133  CG         9.1750    5.5830    7.0980 C.3   114  GLU114      0.1160
    134  CD        10.4710    6.3190    7.4150 C.2   114  GLU114      0.3649
    135  OE1       11.4450    5.6780    7.9100 O.co2 114  GLU114     -0.2457
    136  OE2       10.5110    7.5310    7.1110 O.co2 114  GLU114     -0.2457
    137  N         12.6030   -1.2000    0.2710 N.3   155  LYS155     -0.1245
    138  CA        13.1990   -1.3020    1.6300 C.3   155  LYS155      0.1561
    139  C         12.1700   -0.8200    2.6710 C.2   155  LYS155      0.2260
    140  O         11.2410   -0.0970    2.3040 O.2   155  LYS155     -0.2867
    141  CB        14.4950   -0.4870    1.7520 C.3   155  LYS155      0.0271
    142  CG        14.3640    1.0020    1.3480 C.3   155  LYS155      0.0035
    143  CD        15.7100    1.7590    1.4930 C.3   155  LYS155      0.0206
    144  CE        15.6360    3.2250    1.0640 C.3   155  LYS155      0.1093
    145  NZ        16.9480    3.9430    1.0810 N.3   155  LYS155     -0.1314
    146  N         12.2060    1.3620    4.8480 N.3   157  GLU157     -0.1231
    147  CA        12.1930    2.8120    4.9630 C.3   157  GLU157      0.1699
    148  C         11.2460    3.4780    3.9700 C.2   157  GLU157      0.2592
    149  O         10.9280    4.6550    4.1460 O.2   157  GLU157     -0.2718
    150  CB        13.5860    3.4050    4.7540 C.3   157  GLU157      0.0402
    151  CG        14.6180    3.1070    5.8400 C.3   157  GLU157      0.1161
    152  CD        15.4660    1.8790    5.5660 C.2   157  GLU157      0.3649
    153  OE1       14.9090    0.8850    5.1030 O.co2 157  GLU157     -0.2457
    154  OE2       16.6870    1.8980    5.8460 O.co2 157  GLU157     -0.2457
    155  N         10.8760    2.7600    2.9020 N.am  158  ASN158     -0.1974
    156  CA        10.0490    3.2990    1.8070 C.3   158  ASN158      0.1688
    157  C          8.6450    2.7010    1.7990 C.2   158  ASN158      0.2292
    158  O          7.9150    2.7860    0.7950 O.2   158  ASN158     -0.2864
    159  CB        10.7170    3.0500    0.4530 C.3   158  ASN158      0.1181
    160  CG        11.9520    3.9380    0.2320 C.2   158  ASN158      0.2629
    161  OD1       12.2240    4.7950    1.0310 O.2   158  ASN158     -0.2716
    162  ND2       12.6740    3.7320   -0.8690 N.am  158  ASN158     -0.0877
    163  N          5.1970    2.7430    3.9550 N.3   160  LEU160     -0.1245
    164  CA         4.4560    3.3820    5.0330 C.3   160  LEU160      0.1561
    165  C          3.2800    2.4920    5.4430 C.2   160  LEU160      0.2260
    166  O          2.7310    1.7940    4.5890 O.2   160  LEU160     -0.2867
    167  CB         3.9690    4.7430    4.5680 C.3   160  LEU160      0.0270
    168  CG         5.0890    5.7520    4.2250 C.3   160  LEU160      0.0019
    169  CD1        4.5680    6.8710    3.4000 C.3   160  LEU160      0.0001
    170  CD2        5.7350    6.2860    5.4770 C.3   160  LEU160      0.0001
    171  N          6.2640    4.3580   -1.1570 N.3   170  THR170     -0.1203
    172  CA         6.6260    5.6980   -1.6210 C.3   170  THR170      0.1994
    173  C          8.0160    5.6460   -2.2080 C.2   170  THR170      0.2617
    174  O          8.5380    4.5690   -2.4390 O.2   170  THR170     -0.2717
    175  CB         6.5180    6.7140   -0.4770 C.3   170  THR170      0.1784
    176  OG1        6.7950    8.0240   -1.0000 O.3   170  THR170     -0.2211
    177  CG2        7.5360    6.4490    0.6150 C.3   170  THR170      0.0376
    178  N          8.5880    6.8090   -2.4840 N.am  171  ASP171     -0.1973
    179  CA         9.9660    6.9800   -2.9280 C.3   171  ASP171      0.1709
    180  C         10.2150    6.3890   -4.3140 C.2   171  ASP171      0.2293
    181  O         11.0040    5.4360   -4.4550 O.2   171  ASP171     -0.2864
    182  CB        10.9660    6.4270   -1.9090 C.3   171  ASP171      0.1436
    183  CG        11.2390    7.4110   -0.8060 C.2   171  ASP171      0.3671
    184  OD1       12.1490    8.2500   -0.9270 O.co2 171  ASP171     -0.2456
    185  OD2       10.5610    7.4380    0.2130 O.co2 171  ASP171     -0.2456
    186  N          6.9660    9.4370   13.4700 N.3   313  PHE313     -0.1241
    187  CA         8.0670    9.9210   12.7150 C.3   313  PHE313      0.1605
    188  C          9.0320   10.5640   13.6790 C.2   313  PHE313      0.2264
    189  O          8.6290   11.0750   14.7330 O.2   313  PHE313     -0.2867
    190  CB         7.5600   10.8990   11.6670 C.3   313  PHE313      0.0534
    191  CG         6.6490   10.2550   10.6490 C.ar  313  PHE313     -0.0203
    192  CD1        7.1800    9.6520    9.5140 C.ar  313  PHE313     -0.0042
    193  CD2        5.2680   10.2440   10.8290 C.ar  313  PHE313     -0.0042
    194  CE1        6.3640    9.0270    8.5840 C.ar  313  PHE313     -0.0003
    195  CE2        4.4300    9.6390    9.8840 C.ar  313  PHE313     -0.0003
    196  CZ         4.9800    9.0210    8.7580 C.ar  313  PHE313     -0.0000
@<TRIPOS>BOND
     1    83    82    1
     2    40    38   ar
     3    40    39   ar
     4    80    79    2
     5    81    82    1
     6    81    78    1
     7    38    36   ar
     8    39    37   ar
     9    82    84    1
    10    36    35   ar
    11    37    35   ar
    12    88    87    2
    13   181   180    2
    14    79    78    1
    15    35    34    1
    16   180   179    1
    17    78    77    1
    18    34    31    1
    19    75    76    1
    20    75    74    1
    21    87    86    1
    22   179   178    1
    23   179   182    1
    24    97    98    1
    25    97    96    1
    26    71    70    2
    27    33    32    2
    28    85    86    1
    29    74    73    1
    30    98    99    1
    31   178   173   am
    32   174   173    2
    33    31    32    1
    34    31    30    1
    35    73    72    1
    36   173   172    1
    37    86    89    1
    38    32    41    1
    39   182   183    1
    40    72    69    1
    41    92    93    1
    42    70    69    1
    43    93    96    1
    44    93    94    1
    45    30    26   am
    46   172   171    1
    47   172   175    1
    48    89    90    1
    49    89    91    1
    50   176   175    1
    51    28    29    1
    52    28    25    1
    53    41    42    2
    54    69    68    1
    55   184   183   ar
    56    26    27    2
    57    26    25    1
    58   162   160   am
    59   183   185   ar
    60   107   106   ar
    61   100    94   am
    62   100   101    1
    63   175   177    1
    64    42    43    1
    65    94    95    2
    66    25    24    1
    67   104   101    1
    68   104   105    1
    69   106   108   ar
    70   106   105    1
    71   160   159    1
    72   160   161    2
    73   137   138    1
    74    66    65    2
    75   159   156    1
    76    24    22   am
    77   101   102    1
    78   158   157    2
    79    43    45   am
    80    43    44    2
    81   144   145    1
    82   144   143    1
    83    48    47    2
    84    45    46    1
    85   142   143    1
    86   142   141    1
    87    22    23    2
    88    22    21    1
    89    62    60    1
    90    65    64    1
    91   138   141    1
    92   138   139    1
    93   157   156    1
    94   156   155    1
    95   103   102    2
    96   102   109   am
    97    21    20    1
    98    47    46    1
    99    47    56   am
   100   140   139    2
   101    46    49    1
   102    63    64    1
   103    64    67    1
   104   155   148   am
   105    60    57    1
   106    60    61    1
   107    20    15   am
   108    50    49    1
   109    50    51    1
   110    57    56    1
   111    57    58    1
   112   109   110    1
   113   169   168    1
   114    51    52    1
   115   127   125    1
   116   163   164    1
   117   148   149    2
   118   148   147    1
   119    15    16    2
   120    15    14    1
   121   168   167    1
   122   168   170    1
   123    58    59    2
   124   110   111    1
   125   110   113    1
   126   167   164    1
   127   166   165    2
   128   150   147    1
   129   150   151    1
   130   146   147    1
   131    14    13    1
   132    14    17    1
   133   111   112    2
   134   111   121   am
   135   164   165    1
   136    52    53    2
   137   153   152   ar
   138    12    11    2
   139   125   126    1
   140   125   122    1
   141   113   114    1
   142   121   122    1
   143    13    11   am
   144   152   151    1
   145   152   154   ar
   146    11    10    1
   147    54    53    1
   148   122   123    1
   149    18    17    1
   150    53    55    1
   151    17    19    1
   152    10     9    1
   153     7     6    1
   154   114   115   ar
   155   114   116   ar
   156   115   117   ar
   157     9     3   am
   158   133   134    1
   159   133   132    1
   160   136   134   ar
   161   123   124    2
   162   134   135   ar
   163     5     6    1
   164     5     2    1
   165   132   129    1
   166     6     8    1
   167   116   118   ar
   168     3     4    2
   169     3     2    1
   170   129   130    1
   171   129   128    1
   172   117   119   ar
   173     1     2    1
   174   194   196   ar
   175   194   192   ar
   176   130   131    2
   177   196   195   ar
   178   118   119   ar
   179   119   120    1
   180   192   191   ar
   181   195   193   ar
   182   191   193   ar
   183   191   190    1
   184   190   187    1
   185   187   186    1
   186   187   188    1
   187   188   189    2
