@<TRIPOS>MOLECULE
tmp/2c1bA00.pdb
 208 199 0 0 0
SMALL
GASTEIGER

@<TRIPOS>ATOM
      1  N          8.6460   15.1590    8.0070 N.3    36  LEU36      -0.1231
      2  CA         8.4410   13.7060    8.1670 C.3    36  LEU36       0.1693
      3  C          9.6390   12.8390    7.7400 C.2    36  LEU36       0.2593
      4  O          9.7810   11.6950    8.1850 O.2    36  LEU36      -0.2718
      5  CB         7.2480   13.2720    7.3090 C.3    36  LEU36       0.0284
      6  CG         5.8780   13.8140    7.6980 C.3    36  LEU36       0.0019
      7  CD1        4.8380   13.4630    6.6530 C.3    36  LEU36       0.0001
      8  CD2        5.4490   13.2720    9.0290 C.3    36  LEU36       0.0001
      9  N         10.4400   13.3640    6.8230 N.am   37  GLY37      -0.1942
     10  CA        11.5930   12.6680    6.2850 C.3    37  GLY37       0.2014
     11  C         12.5040   13.6430    5.5750 C.2    37  GLY37       0.2640
     12  O         12.0620   14.7290    5.1740 O.2    37  GLY37      -0.2714
     13  N         13.7770   13.2700    5.4460 N.am   38  THR38      -0.1936
     14  CA        14.7770   14.0830    4.7490 C.3    38  THR38       0.2028
     15  C         15.6800   13.2150    3.8760 C.2    38  THR38       0.2643
     16  O         15.9910   12.0740    4.1990 O.2    38  THR38      -0.2714
     17  CB        15.6650   14.8620    5.7270 C.3    38  THR38       0.1808
     18  OG1       16.3770   13.9410    6.5470 O.3    38  THR38      -0.2208
     19  CG2       14.8430   15.6530    6.7260 C.3    38  THR38       0.0379
     20  N         16.0910   13.7920    2.7630 N.am   39  GLY39      -0.1939
     21  CA        16.9640   13.1380    1.8170 C.3    39  GLY39       0.2014
     22  C         18.0780   14.0900    1.4230 C.2    39  GLY39       0.2640
     23  O         18.1770   15.2330    1.9230 O.2    39  GLY39      -0.2714
     24  N         18.8790   13.6340    0.4740 N.am   40  SER40      -0.1935
     25  CA        20.0820   14.3400    0.0050 C.3    40  SER40       0.2055
     26  C         19.8020   15.6480   -0.7160 C.2    40  SER40       0.2643
     27  O         20.6000   16.5760   -0.6570 O.2    40  SER40      -0.2714
     28  CB        20.8480   13.4200   -0.9490 C.3    40  SER40       0.2130
     29  OG        21.4270   12.3510   -0.2230 O.3    40  SER40      -0.2179
     30  N         18.6840   15.7110   -1.4380 N.am   41  PHE41      -0.1959
     31  CA        18.3340   16.9170   -2.1870 C.3    41  PHE41       0.1771
     32  C         16.8910   17.3880   -1.9250 C.2    41  PHE41       0.2620
     33  O         16.3300   18.1650   -2.6940 O.2    41  PHE41      -0.2715
     34  CB        18.5910   16.7010   -3.6780 C.3    41  PHE41       0.0574
     35  CG        17.9900   15.4480   -4.2320 C.ar   41  PHE41      -0.0200
     36  CD1       18.7780   14.3090   -4.4200 C.ar   41  PHE41      -0.0042
     37  CD2       16.6530   15.4000   -4.5780 C.ar   41  PHE41      -0.0042
     38  CE1       18.2470   13.1540   -4.9390 C.ar   41  PHE41      -0.0003
     39  CE2       16.1120   14.2470   -5.0910 C.ar   41  PHE41      -0.0003
     40  CZ        16.9190   13.1220   -5.2860 C.ar   41  PHE41      -0.0000
     41  N         16.3200   16.9630   -0.8010 N.am   42  GLY42      -0.1940
     42  CA        15.0350   17.4890   -0.3910 C.3    42  GLY42       0.2014
     43  C         14.5390   16.9640    0.9330 C.2    42  GLY42       0.2639
     44  O         15.2790   16.3420    1.7040 O.2    42  GLY42      -0.2714
     45  N         13.2650   17.2250    1.1940 N.am   43  ARG43      -0.1963
     46  CA        12.6050   16.7590    2.4060 C.3    43  ARG43       0.1729
     47  C         11.1260   16.5450    2.1190 C.2    43  ARG43       0.2616
     48  O         10.6220   17.0250    1.1150 O.2    43  ARG43      -0.2715
     49  CB        12.8010   17.7600    3.5630 C.3    43  ARG43       0.0348
     50  CG        12.0000   19.0910    3.4640 C.3    43  ARG43       0.0492
     51  CD        12.2440   20.0810    4.6260 C.3    43  ARG43       0.2205
     52  NE        13.6690   20.1800    4.9510 N.pl3  43  ARG43      -0.0865
     53  CZ        14.2200   19.9790    6.1500 C.cat  43  ARG43       0.5346
     54  NH1       13.4900   19.6800    7.2200 N.pl3  43  ARG43       0.1354
     55  NH2       15.5280   20.0830    6.2790 N.pl3  43  ARG43       0.1354
     56  N         10.4580   15.8330    3.0100 N.am   44  VAL44      -0.1977
     57  CA         9.0200   15.6290    2.9630 C.3    44  VAL44       0.1596
     58  C          8.4100   16.2160    4.2510 C.2    44  VAL44       0.2287
     59  O          8.9010   15.9380    5.3400 O.2    44  VAL44      -0.2864
     60  CB         8.7030   14.1550    2.8620 C.3    44  VAL44       0.0276
     61  CG1        7.1660   13.9180    2.9380 C.3    44  VAL44       0.0022
     62  CG2        9.2990   13.6150    1.5650 C.3    44  VAL44       0.0022
     63  N          1.4520   14.7040    2.5700 N.3    57  ALA57      -0.1245
     64  CA         2.8930   14.6890    2.6580 C.3    57  ALA57       0.1562
     65  C          3.4180   15.3770    1.4270 C.2    57  ALA57       0.2260
     66  O          3.1680   14.9250    0.3020 O.2    57  ALA57      -0.2867
     67  CB         3.3990   13.2390    2.7200 C.3    57  ALA57       0.0290
     68  N          6.5660   16.4550   -0.7000 N.3    59  LYS59      -0.1245
     69  CA         7.9890   16.2660   -1.0150 C.3    59  LYS59       0.1561
     70  C          8.4980   17.4830   -1.7550 C.2    59  LYS59       0.2260
     71  O          7.9870   17.8190   -2.8220 O.2    59  LYS59      -0.2867
     72  CB         8.1470   15.0240   -1.8950 C.3    59  LYS59       0.0271
     73  CG         9.5780   14.6850   -2.3120 C.3    59  LYS59       0.0035
     74  CD         9.6250   13.2220   -2.8300 C.3    59  LYS59       0.0206
     75  CE        10.9920   12.8180   -3.2500 C.3    59  LYS59       0.1093
     76  NZ        11.0810   11.3550   -3.5730 N.3    59  LYS59      -0.1314
     77  N         11.8170   19.2080   -3.3440 N.3    61  LEU61      -0.1245
     78  CA        13.1540   18.9750   -3.8590 C.3    61  LEU61       0.1561
     79  C         13.7470   20.2980   -4.2750 C.2    61  LEU61       0.2260
     80  O         13.1210   21.0860   -4.9740 O.2    61  LEU61      -0.2867
     81  CB        13.1200   18.0310   -5.0550 C.3    61  LEU61       0.0270
     82  CG        12.4050   16.7090   -4.8270 C.3    61  LEU61       0.0019
     83  CD1       12.4950   15.8390   -6.0710 C.3    61  LEU61       0.0001
     84  CD2       12.9630   15.9920   -3.6250 C.3    61  LEU61       0.0001
     85  N          1.4960    4.8460   -2.6680 N.3    91  VAL91      -0.1245
     86  CA         1.1170    6.1940   -2.2130 C.3    91  VAL91       0.1561
     87  C          0.6840    6.9970   -3.4240 C.2    91  VAL91       0.2260
     88  O          1.3800    7.0400   -4.4450 O.2    91  VAL91      -0.2867
     89  CB         2.2780    6.9430   -1.4770 C.3    91  VAL91       0.0252
     90  CG1        1.8470    8.3510   -1.0700 C.3    91  VAL91       0.0019
     91  CG2        2.6970    6.1870   -0.2350 C.3    91  VAL91       0.0019
     92  N          1.4420   14.2620   -1.8560 N.3   107  MET107     -0.1230
     93  CA         0.9690   12.8900   -1.8190 C.3   107  MET107      0.1702
     94  C          0.0900   12.6680   -0.6000 C.2   107  MET107      0.2592
     95  O          0.1010   13.4610    0.3450 O.2   107  MET107     -0.2718
     96  CB         2.1630   11.9190   -1.7100 C.3   107  MET107      0.0401
     97  CG         3.2350   12.0850   -2.7820 C.3   107  MET107      0.0596
     98  SD         4.6470   11.0990   -2.3310 S.3   107  MET107     -0.1393
     99  CE         5.9030   12.3240   -2.5080 C.3   107  MET107      0.0692
    100  N         -0.6360   11.5640   -0.6250 N.am  108  GLU108     -0.1966
    101  CA        -1.4160   11.0990    0.5130 C.3   108  GLU108      0.1733
    102  C         -0.5250   10.9880    1.7560 C.2   108  GLU108      0.2616
    103  O          0.6370   10.5610    1.6670 O.2   108  GLU108     -0.2715
    104  CB        -2.0590    9.7560    0.1580 C.3   108  GLU108      0.0429
    105  CG        -3.1240    9.2760    1.1280 C.3   108  GLU108      0.1163
    106  CD        -3.8000    7.9970    0.6520 C.2   108  GLU108      0.3649
    107  OE1       -3.7360    6.9830    1.3920 O.co2 108  GLU108     -0.2457
    108  OE2       -4.3700    8.0050   -0.4680 O.co2 108  GLU108     -0.2457
    109  N         -1.0460   11.4250    2.9030 N.am  109  TYR109     -0.1960
    110  CA        -0.3430   11.2830    4.1700 C.3   109  TYR109      0.1771
    111  C         -0.7210    9.9400    4.7720 C.2   109  TYR109      0.2619
    112  O         -1.9010    9.5880    4.8820 O.2   109  TYR109     -0.2715
    113  CB        -0.6470   12.4370    5.1260 C.3   109  TYR109      0.0574
    114  CG        -0.0760   12.2400    6.5090 C.ar  109  TYR109     -0.0198
    115  CD1        1.2850   11.9900    6.6910 C.ar  109  TYR109     -0.0009
    116  CD2       -0.8880   12.3040    7.6440 C.ar  109  TYR109     -0.0009
    117  CE1        1.8260   11.8000    7.9500 C.ar  109  TYR109      0.0417
    118  CE2       -0.3490   12.1080    8.9220 C.ar  109  TYR109      0.0417
    119  CZ         1.0180   11.8610    9.0710 C.ar  109  TYR109      0.1957
    120  OH         1.6000   11.6710   10.3200 O.3   109  TYR109     -0.2866
    121  N          0.2990    9.1480    5.0780 N.am  110  VAL110     -0.1977
    122  CA         0.1290    7.8130    5.6370 C.3   110  VAL110      0.1596
    123  C          0.6200    7.8480    7.0880 C.2   110  VAL110      0.2287
    124  O          1.8260    7.8760    7.3390 O.2   110  VAL110     -0.2864
    125  CB         0.8700    6.7430    4.8130 C.3   110  VAL110      0.0276
    126  CG1        0.4360    5.3740    5.2690 C.3   110  VAL110      0.0022
    127  CG2        0.5840    6.8970    3.3080 C.3   110  VAL110      0.0022
    128  N          6.7620    4.4730    9.0420 N.3   114  GLU114     -0.1245
    129  CA         7.5130    3.5770    8.1760 C.3   114  GLU114      0.1567
    130  C          7.5850    2.1900    8.7880 C.2   114  GLU114      0.2260
    131  O          7.7220    2.0500   10.0110 O.2   114  GLU114     -0.2867
    132  CB         8.9270    4.1320    7.9670 C.3   114  GLU114      0.0388
    133  CG         8.9170    5.5200    7.3420 C.3   114  GLU114      0.1160
    134  CD        10.2680    6.1920    7.3110 C.2   114  GLU114      0.3649
    135  OE1       11.2430    5.5650    7.7340 O.co2 114  GLU114     -0.2457
    136  OE2       10.3440    7.3660    6.8550 O.co2 114  GLU114     -0.2457
    137  N         12.8260   -1.1270    0.2240 N.3   155  LYS155     -0.1245
    138  CA        13.3640   -1.2400    1.5910 C.3   155  LYS155      0.1561
    139  C         12.2920   -0.8210    2.6000 C.2   155  LYS155      0.2260
    140  O         11.3830   -0.0830    2.2430 O.2   155  LYS155     -0.2867
    141  CB        14.6250   -0.3780    1.7810 C.3   155  LYS155      0.0271
    142  CG        14.4700    1.0750    1.4240 C.3   155  LYS155      0.0035
    143  CD        15.7700    1.8370    1.5870 C.3   155  LYS155      0.0206
    144  CE        15.6260    3.2790    1.1430 C.3   155  LYS155      0.1093
    145  NZ        16.9360    3.9950    0.9980 N.3   155  LYS155     -0.1314
    146  N         12.2970    1.3630    4.8340 N.3   157  GLU157     -0.1231
    147  CA        12.2700    2.8150    4.9780 C.3   157  GLU157      0.1699
    148  C         11.3190    3.4560    3.9770 C.2   157  GLU157      0.2592
    149  O         10.9000    4.5750    4.1910 O.2   157  GLU157     -0.2718
    150  CB        13.6650    3.4110    4.7800 C.3   157  GLU157      0.0402
    151  CG        14.6820    3.0680    5.8790 C.3   157  GLU157      0.1161
    152  CD        15.5450    1.8540    5.5680 C.2   157  GLU157      0.3649
    153  OE1       14.9700    0.8490    5.1160 O.co2 157  GLU157     -0.2457
    154  OE2       16.7970    1.8960    5.7930 O.co2 157  GLU157     -0.2457
    155  N         11.0300    2.7690    2.8700 N.am  158  ASN158     -0.1974
    156  CA        10.1150    3.2780    1.8260 C.3   158  ASN158      0.1688
    157  C          8.7190    2.6680    1.8660 C.2   158  ASN158      0.2292
    158  O          7.9440    2.8000    0.9010 O.2   158  ASN158     -0.2864
    159  CB        10.7340    3.0250    0.4350 C.3   158  ASN158      0.1181
    160  CG        11.8980    3.9570    0.1350 C.2   158  ASN158      0.2629
    161  OD1       12.0550    4.9820    0.7920 O.2   158  ASN158     -0.2716
    162  ND2       12.6990    3.6250   -0.8860 N.am  158  ASN158     -0.0877
    163  N          5.2630    2.4800    4.0670 N.3   160  LEU160     -0.1245
    164  CA         4.4660    3.1550    5.0920 C.3   160  LEU160      0.1561
    165  C          3.2640    2.2990    5.4420 C.2   160  LEU160      0.2260
    166  O          2.6860    1.6620    4.5680 O.2   160  LEU160     -0.2867
    167  CB         3.9850    4.5000    4.5460 C.3   160  LEU160      0.0270
    168  CG         5.1020    5.4870    4.2190 C.3   160  LEU160      0.0019
    169  CD1        4.5950    6.6190    3.3840 C.3   160  LEU160      0.0001
    170  CD2        5.7090    6.0190    5.5260 C.3   160  LEU160      0.0001
    171  N          6.3280    4.1960   -1.1140 N.3   170  THR170     -0.1203
    172  CA         6.6730    5.5550   -1.5160 C.3   170  THR170      0.1994
    173  C          8.0940    5.6390   -2.0160 C.2   170  THR170      0.2617
    174  O          8.9090    4.7290   -1.8130 O.2   170  THR170     -0.2717
    175  CB         6.4280    6.5620   -0.3830 C.3   170  THR170      0.1784
    176  OG1        6.5480    7.9120   -0.8970 O.3   170  THR170     -0.2211
    177  CG2        7.4560    6.4340    0.7270 C.3   170  THR170      0.0376
    178  N          8.3850    6.7780   -2.6210 N.am  171  ASP171     -0.1973
    179  CA         9.6870    7.0760   -3.2220 C.3   171  ASP171      0.1709
    180  C          9.9420    6.3320   -4.5230 C.2   171  ASP171      0.2293
    181  O         10.4780    5.1870   -4.5430 O.2   171  ASP171     -0.2864
    182  CB        10.8420    6.9010   -2.2550 C.3   171  ASP171      0.1436
    183  CG        11.9970    7.8660   -2.5750 C.2   171  ASP171      0.3671
    184  OD1       12.3010    8.0030   -3.7640 O.co2 171  ASP171     -0.2456
    185  OD2       12.6350    8.5360   -1.7330 O.co2 171  ASP171     -0.2456
    186  N          6.1710    8.9730   13.6010 N.3   313  PHE313     -0.1241
    187  CA         7.3310    9.4330   12.8420 C.3   313  PHE313      0.1605
    188  C          8.3550   10.0200   13.7690 C.2   313  PHE313      0.2264
    189  O          7.9840   10.6360   14.7490 O.2   313  PHE313     -0.2867
    190  CB         6.9250   10.4640   11.7970 C.3   313  PHE313      0.0534
    191  CG         6.1310    9.8720   10.6900 C.ar  313  PHE313     -0.0203
    192  CD1        6.7910    9.2880    9.5950 C.ar  313  PHE313     -0.0042
    193  CD2        4.7340    9.8090   10.7610 C.ar  313  PHE313     -0.0042
    194  CE1        6.0920    8.6760    8.5900 C.ar  313  PHE313     -0.0003
    195  CE2        4.0100    9.2070    9.7260 C.ar  313  PHE313     -0.0003
    196  CZ         4.6850    8.6340    8.6380 C.ar  313  PHE313     -0.0000
    197  N         12.7860   15.4150   12.9150 N.3   316  TYR316     -0.1241
    198  CA        13.8990   15.8630   12.1000 C.3   316  TYR316      0.1605
    199  C         14.0820   17.3530   12.3270 C.2   316  TYR316      0.2264
    200  O         13.1260   18.0460   12.6550 O.2   316  TYR316     -0.2867
    201  CB        13.6330   15.6100   10.6250 C.3   316  TYR316      0.0534
    202  CG        13.5660   14.1500   10.2120 C.ar  316  TYR316     -0.0201
    203  CD1       12.4290   13.4080   10.4160 C.ar  316  TYR316     -0.0009
    204  CD2       14.6520   13.5280    9.6140 C.ar  316  TYR316     -0.0009
    205  CE1       12.3580   12.0700   10.0180 C.ar  316  TYR316      0.0417
    206  CE2       14.5890   12.1940    9.2140 C.ar  316  TYR316      0.0417
    207  CZ        13.4510   11.4770    9.4260 C.ar  316  TYR316      0.1957
    208  OH        13.3860   10.1640    9.0120 O.3   316  TYR316     -0.2866
@<TRIPOS>BOND
     1    83    82    1
     2    40    39   ar
     3    40    38   ar
     4    39    37   ar
     5    81    82    1
     6    81    78    1
     7    80    79    2
     8    38    36   ar
     9    82    84    1
    10    37    35   ar
    11   181   180    2
    12   180   179    1
    13    88    87    2
    14    36    35   ar
    15    79    78    1
    16    35    34    1
    17    78    77    1
    18   184   183   ar
    19    34    31    1
    20    76    75    1
    21    87    86    1
    22    75    74    1
    23   179   178    1
    24   179   182    1
    25    74    73    1
    26    71    70    2
    27    97    98    1
    28    97    96    1
    29    33    32    2
    30    85    86    1
    31   178   173   am
    32   183   182    1
    33   183   185   ar
    34    99    98    1
    35    73    72    1
    36    86    89    1
    37    31    32    1
    38    31    30    1
    39   173   174    2
    40   173   172    1
    41    32    41   am
    42    72    69    1
    43    92    93    1
    44    93    96    1
    45    93    94    1
    46    70    69    1
    47   172   171    1
    48   172   175    1
    49    89    90    1
    50    89    91    1
    51    30    26   am
    52    69    68    1
    53    28    29    1
    54    28    25    1
    55   176   175    1
    56   162   160   am
    57    41    42    1
    58    26    27    2
    59    26    25    1
    60   100    94   am
    61   100   101    1
    62    94    95    2
    63   108   106   ar
    64    42    43    1
    65   175   177    1
    66    25    24    1
    67   160   159    1
    68   160   161    2
    69   104   101    1
    70   104   105    1
    71   137   138    1
    72    66    65    2
    73   159   156    1
    74    24    22   am
    75   101   102    1
    76   106   105    1
    77   106   107   ar
    78   158   157    2
    79    43    45   am
    80    43    44    2
    81   145   144    1
    82    48    47    2
    83   144   143    1
    84    45    46    1
    85    22    21    1
    86    22    23    2
    87   142   143    1
    88   142   141    1
    89    65    64    1
    90    62    60    1
    91   138   141    1
    92   138   139    1
    93   103   102    2
    94   102   109   am
    95    21    20    1
    96   156   157    1
    97   156   155    1
    98    47    46    1
    99    47    56   am
   100   140   139    2
   101    46    49    1
   102    63    64    1
   103    64    67    1
   104    20    15   am
   105    60    61    1
   106    60    57    1
   107   155   148   am
   108   109   110    1
   109    57    56    1
   110    57    58    1
   111   127   125    1
   112   169   168    1
   113    50    49    1
   114    50    51    1
   115    15    16    2
   116    15    14    1
   117   148   149    2
   118   148   147    1
   119   163   164    1
   120   110   111    1
   121   110   113    1
   122   168   167    1
   123   168   170    1
   124    58    59    2
   125   167   164    1
   126   166   165    2
   127    51    52    1
   128    14    13    1
   129    14    17    1
   130   111   112    2
   131   111   121   am
   132   150   147    1
   133   150   151    1
   134   125   126    1
   135   125   122    1
   136   146   147    1
   137    52    53    2
   138   121   122    1
   139   164   165    1
   140   153   152   ar
   141   113   114    1
   142    12    11    2
   143    13    11   am
   144   152   154   ar
   145   152   151    1
   146    11    10    1
   147   122   123    1
   148    17    18    1
   149    17    19    1
   150    53    55    1
   151    53    54    1
   152    10     9    1
   153   114   115   ar
   154   114   116   ar
   155     7     6    1
   156   115   117   ar
   157     9     3   am
   158   136   134   ar
   159   123   124    2
   160     5     6    1
   161     5     2    1
   162   134   133    1
   163   134   135   ar
   164   133   132    1
   165   116   118   ar
   166     6     8    1
   167     3     2    1
   168     3     4    2
   169   117   119   ar
   170   132   129    1
   171     1     2    1
   172   129   130    1
   173   129   128    1
   174   194   196   ar
   175   194   192   ar
   176   196   195   ar
   177   130   131    2
   178   118   119   ar
   179   208   207    1
   180   119   120    1
   181   206   207   ar
   182   206   204   ar
   183   207   205   ar
   184   192   191   ar
   185   204   202   ar
   186   195   193   ar
   187   205   203   ar
   188   202   203   ar
   189   202   201    1
   190   201   198    1
   191   191   193   ar
   192   191   190    1
   193   190   187    1
   194   198   199    1
   195   198   197    1
   196   199   200    2
   197   187   186    1
   198   187   188    1
   199   188   189    2
