@<TRIPOS>MOLECULE
tmp/2c1dF00.pdb
 213 208 0 0 0
SMALL
GASTEIGER

@<TRIPOS>ATOM
      1  N         -1.9940   99.3920   47.5990 N.3    33  MET33      -0.1245
      2  CA        -2.3270  100.5860   46.8210 C.3    33  MET33       0.1570
      3  C         -3.3150  101.4990   47.5160 C.2    33  MET33       0.2261
      4  O         -3.4420  102.6480   47.1310 O.2    33  MET33      -0.2867
      5  CB        -2.8820  100.1720   45.4680 C.3    33  MET33       0.0387
      6  CG        -1.8190   99.5890   44.5720 C.3    33  MET33       0.0595
      7  SD        -2.5630   98.7310   43.1760 S.3    33  MET33      -0.1393
      8  CE        -3.0340  100.1420   42.2190 C.3    33  MET33       0.0692
      9  N          1.4880  102.1180   49.4450 N.3    39  GLY39      -0.1210
     10  CA         1.4630  102.7550   48.1260 C.3    39  GLY39       0.1956
     11  C          0.7350  104.0870   48.0990 C.2    39  GLY39       0.2612
     12  O          1.1400  105.0140   47.3750 O.2    39  GLY39      -0.2717
     13  N         -0.3570  104.1770   48.8610 N.am   40  ASN40      -0.1960
     14  CA        -1.1690  105.3970   48.9520 C.3    40  ASN40       0.1819
     15  C         -1.4910  105.9630   47.5670 C.2    40  ASN40       0.2621
     16  O         -1.5640  107.1730   47.3830 O.2    40  ASN40      -0.2715
     17  CB        -0.4310  106.4360   49.8090 C.3    40  ASN40       0.1195
     18  CG        -1.3300  107.5450   50.3020 C.2    40  ASN40       0.2630
     19  OD1       -2.5440  107.3680   50.5250 O.2    40  ASN40      -0.2716
     20  ND2       -0.7330  108.7080   50.4920 N.am   40  ASN40      -0.0877
     21  N         -1.7030  105.0710   46.6130 N.am   41  CYS41      -0.1968
     22  CA        -1.8860  105.4300   45.1990 C.3    41  CYS41       0.1712
     23  C         -3.1450  106.2590   45.0120 C.2    41  CYS41       0.2296
     24  O         -3.1820  107.1940   44.2010 O.2    41  CYS41      -0.2864
     25  CB        -1.9930  104.1580   44.3600 C.3    41  CYS41       0.0983
     26  SG        -0.6610  102.9640   44.6400 S.3    41  CYS41      -0.0798
     27  N         -4.4100  108.4910   46.9500 N.3    43  ALA43      -0.1231
     28  CA        -4.2500  109.9200   47.2510 C.3    43  ALA43       0.1694
     29  C         -4.2290  110.7330   45.9650 C.2    43  ALA43       0.2592
     30  O         -4.7050  111.8700   45.9200 O.2    43  ALA43      -0.2718
     31  CB        -2.9690  110.1910   48.0400 C.3    43  ALA43       0.0304
     32  N         -3.7040  110.1430   44.9040 N.am   44  CYS44      -0.1956
     33  CA        -3.6130  110.8640   43.6390 C.3    44  CYS44       0.1843
     34  C         -4.4880  110.3270   42.5200 C.2    44  CYS44       0.2625
     35  O         -4.9430  111.1220   41.7030 O.2    44  CYS44      -0.2714
     36  CB        -2.1700  110.9260   43.1670 C.3    44  CYS44       0.0997
     37  SG        -1.0840  111.8900   44.2610 S.3    44  CYS44      -0.0797
     38  N         -4.7120  109.0140   42.4720 N.am   45  HIS45      -0.1973
     39  CA        -5.3800  108.3380   41.3380 C.3    45  HIS45       0.1656
     40  C         -6.7010  107.7720   41.7770 C.2    45  HIS45       0.2291
     41  O         -6.7800  107.1560   42.8390 O.2    45  HIS45      -0.2864
     42  CB        -4.6070  107.1010   40.8150 C.3    45  HIS45       0.0771
     43  CG        -3.2510  107.3810   40.2570 C.ar   45  HIS45       0.0820
     44  ND1       -2.9990  108.3890   39.3670 N.ar   45  HIS45      -0.2267
     45  CD2       -2.0910  106.6990   40.3720 C.ar   45  HIS45       0.1154
     46  CE1       -1.7220  108.3700   39.0230 C.ar   45  HIS45       0.1986
     47  NE2       -1.1440  107.3630   39.6300 N.ar   45  HIS45      -0.2212
     48  N         -5.4160  114.1920   41.2070 N.3    59  ILE59      -0.1231
     49  CA        -4.1100  114.6730   40.7600 C.3    59  ILE59       0.1692
     50  C         -3.7310  114.1270   39.3810 C.2    59  ILE59       0.2592
     51  O         -3.1520  114.8340   38.5630 O.2    59  ILE59      -0.2718
     52  CB        -3.0400  114.2680   41.7920 C.3    59  ILE59       0.0266
     53  CG1       -3.2970  114.9650   43.1390 C.3    59  ILE59       0.0019
     54  CG2       -1.6300  114.5750   41.2890 C.3    59  ILE59       0.0020
     55  CD1       -3.0760  116.4530   43.1310 C.3    59  ILE59       0.0001
     56  N         -4.0640  112.8640   39.1450 N.am   60  ALA60      -0.1966
     57  CA        -3.6720  112.1660   37.9380 C.3    60  ALA60       0.1713
     58  C         -4.8220  111.2630   37.5000 C.2    60  ALA60       0.2458
     59  O         -5.7000  110.9740   38.2990 O.2    60  ALA60      -0.2730
     60  CB        -2.4370  111.3640   38.2060 C.3    60  ALA60       0.0333
     61  N         -4.8610  110.8630   36.2250 N.am   61  PRO61      -0.2716
     62  CA        -6.0130  110.1080   35.7210 C.3    61  PRO61       0.1521
     63  C         -6.1850  108.7400   36.3730 C.2    61  PRO61       0.2440
     64  O         -5.2250  108.1830   36.8930 O.2    61  PRO61      -0.2731
     65  CB        -5.7060  109.9600   34.2110 C.3    61  PRO61       0.0310
     66  CG        -4.8360  111.0620   33.9120 C.3    61  PRO61       0.0237
     67  CD        -3.9140  111.1630   35.1330 C.3    61  PRO61       0.0939
     68  N         -7.3900  108.1960   36.3060 N.am   62  PRO62      -0.2716
     69  CA        -7.6850  106.8830   36.8800 C.3    62  PRO62       0.1536
     70  C         -6.7230  105.8150   36.3820 C.2    62  PRO62       0.2598
     71  O         -6.2150  105.9130   35.2710 O.2    62  PRO62      -0.2715
     72  CB        -9.0940  106.5920   36.3530 C.3    62  PRO62       0.0310
     73  CG        -9.6940  107.8990   36.1440 C.3    62  PRO62       0.0237
     74  CD        -8.5830  108.7860   35.6680 C.3    62  PRO62       0.0939
     75  N         -6.4730  104.8150   37.2160 N.am   63  LEU63      -0.1978
     76  CA        -5.5590  103.7390   36.8680 C.3    63  LEU63       0.1596
     77  C         -6.2620  102.6550   36.0550 C.2    63  LEU63       0.2287
     78  O         -5.6090  101.7650   35.5410 O.2    63  LEU63      -0.2864
     79  CB        -4.9420  103.1300   38.1310 C.3    63  LEU63       0.0297
     80  CG        -3.9410  104.0250   38.8780 C.3    63  LEU63       0.0022
     81  CD1       -3.4290  103.2910   40.0870 C.3    63  LEU63       0.0001
     82  CD2       -2.8030  104.4260   37.9850 C.3    63  LEU63       0.0001
     83  N         -4.7700  100.6790   32.9100 N.3    66  ALA66      -0.1245
     84  CA        -3.3050  100.7670   32.9070 C.3    66  ALA66       0.1562
     85  C         -2.6890   99.5110   32.2950 C.2    66  ALA66       0.2260
     86  O         -1.6230   99.5910   31.7030 O.2    66  ALA66      -0.2867
     87  CB        -2.7370  100.9780   34.3240 C.3    66  ALA66       0.0290
     88  N         -2.3520  100.0700   28.6000 N.3    69  ARG69      -0.1231
     89  CA        -1.4840  101.1730   28.2140 C.3    69  ARG69       0.1694
     90  C         -0.0130  100.8270   28.3680 C.2    69  ARG69       0.2592
     91  O          0.8350  101.4320   27.7140 O.2    69  ARG69      -0.2718
     92  CB        -1.8130  102.4150   29.0430 C.3    69  ARG69       0.0321
     93  CG        -3.2350  102.8940   28.9020 C.3    69  ARG69       0.0489
     94  CD        -3.4550  104.2980   29.3980 C.3    69  ARG69       0.2205
     95  NE        -3.4370  104.3900   30.8510 N.pl3  69  ARG69      -0.0865
     96  CZ        -4.4570  104.1120   31.6540 C.cat  69  ARG69       0.5346
     97  NH1       -5.6200  103.6820   31.1670 N.pl3  69  ARG69       0.1354
     98  NH2       -4.3220  104.2680   32.9690 N.pl3  69  ARG69       0.1354
     99  N          0.2910   99.8490   29.2210 N.am   70  TRP70      -0.1976
    100  CA         1.6670   99.5520   29.5700 C.3    70  TRP70       0.1640
    101  C          1.9160   98.0600   29.6830 C.2    70  TRP70       0.2290
    102  O          1.0600   97.3110   30.1600 O.2    70  TRP70      -0.2864
    103  CB         2.0220  100.2020   30.9190 C.3    70  TRP70       0.0576
    104  CG         1.7170  101.6490   30.9900 C.ar   70  TRP70       0.0006
    105  CD1        0.6070  102.2250   31.5400 C.ar   70  TRP70       0.0946
    106  CD2        2.5190  102.7290   30.4880 C.ar   70  TRP70       0.0152
    107  NE1        0.6720  103.5910   31.4090 N.ar   70  TRP70      -0.2442
    108  CE2        1.8360  103.9310   30.7810 C.ar   70  TRP70       0.0810
    109  CE3        3.7570  102.8040   29.8440 C.ar   70  TRP70       0.0012
    110  CZ2        2.3380  105.1850   30.4410 C.ar   70  TRP70       0.0191
    111  CZ3        4.2560  104.0380   29.5140 C.ar   70  TRP70       0.0001
    112  CH2        3.5420  105.2270   29.8110 C.ar   70  TRP70       0.0015
    113  N          5.1400   98.8740   33.7030 N.3    75  LEU75      -0.1245
    114  CA         4.4350   99.0790   34.9730 C.3    75  LEU75       0.1561
    115  C          5.3950   98.9680   36.1610 C.2    75  LEU75       0.2260
    116  O          5.3800   99.8030   37.0670 O.2    75  LEU75      -0.2867
    117  CB         3.2570   98.1070   35.1190 C.3    75  LEU75       0.0270
    118  CG         2.1090   98.3700   34.1350 C.3    75  LEU75       0.0019
    119  CD1        1.1420   97.1920   34.0230 C.3    75  LEU75       0.0001
    120  CD2        1.3440   99.6350   34.5170 C.3    75  LEU75       0.0001
    121  N          7.4210  102.1100   36.3190 N.3    78  ILE78      -0.1231
    122  CA         6.6180  103.2720   36.7460 C.3    78  ILE78       0.1692
    123  C          6.4060  103.2290   38.2580 C.2    78  ILE78       0.2591
    124  O          6.5200  104.2400   38.9160 O.2    78  ILE78      -0.2718
    125  CB         5.2680  103.2890   36.0180 C.3    78  ILE78       0.0266
    126  CG1        5.4790  103.7400   34.5620 C.3    78  ILE78       0.0019
    127  CG2        4.2370  104.2130   36.7170 C.3    78  ILE78       0.0020
    128  CD1        4.2650  103.4880   33.6710 C.3    78  ILE78       0.0001
    129  N          6.1100  102.0480   38.7940 N.am   79  VAL79      -0.1980
    130  CA         5.8930  101.9000   40.2290 C.3    79  VAL79       0.1595
    131  C          7.2150  102.0770   40.9920 C.2    79  VAL79       0.2287
    132  O          7.2540  102.7680   42.0200 O.2    79  VAL79      -0.2864
    133  CB         5.1920  100.5660   40.5560 C.3    79  VAL79       0.0276
    134  CG1        5.1150  100.3340   42.0510 C.3    79  VAL79       0.0022
    135  CG2        3.7980  100.5430   39.9460 C.3    79  VAL79       0.0022
    136  N          8.4940  109.4450   33.3180 N.3    86  PHE86      -0.1241
    137  CA         8.0050  110.8210   33.2040 C.3    86  PHE86       0.1605
    138  C          8.9180  111.7470   33.9780 C.2    86  PHE86       0.2264
    139  O          8.8230  111.8450   35.2130 O.2    86  PHE86      -0.2867
    140  CB         6.5820  110.9700   33.7530 C.3    86  PHE86       0.0534
    141  CG         5.6310  109.8950   33.3270 C.ar   86  PHE86      -0.0203
    142  CD1        5.2980  108.8680   34.1910 C.ar   86  PHE86      -0.0042
    143  CD2        5.0300  109.9300   32.0770 C.ar   86  PHE86      -0.0042
    144  CE1        4.4080  107.8790   33.8080 C.ar   86  PHE86      -0.0003
    145  CE2        4.1420  108.9450   31.6940 C.ar   86  PHE86      -0.0003
    146  CZ         3.8320  107.9190   32.5600 C.ar   86  PHE86      -0.0000
    147  N          8.1310  114.1170   37.1590 N.3    89  THR89      -0.1203
    148  CA         6.7590  113.8640   37.5680 C.3    89  THR89       0.1994
    149  C          6.6210  114.0090   39.0940 C.2    89  THR89       0.2618
    150  O          7.5560  113.7490   39.8290 O.2    89  THR89      -0.2717
    151  CB         6.2530  112.4760   37.1300 C.3    89  THR89       0.1784
    152  OG1        4.8830  112.3220   37.5070 O.3    89  THR89      -0.2211
    153  CG2        6.9630  111.3250   37.8680 C.3    89  THR89       0.0376
    154  N          5.4450  114.4780   39.4960 N.am   90  PHE90      -0.1961
    155  CA         4.9960  114.6070   40.8840 C.3    90  PHE90       0.1771
    156  C          4.8620  113.2500   41.5660 C.2    90  PHE90       0.2619
    157  O          4.9880  113.1520   42.7810 O.2    90  PHE90      -0.2715
    158  CB         3.6370  115.3230   40.8360 C.3    90  PHE90       0.0574
    159  CG         2.9880  115.5760   42.1790 C.ar   90  PHE90      -0.0200
    160  CD1        3.7120  116.0580   43.2580 C.ar   90  PHE90      -0.0042
    161  CD2        1.6250  115.3530   42.3360 C.ar   90  PHE90      -0.0042
    162  CE1        3.0710  116.3240   44.4770 C.ar   90  PHE90      -0.0003
    163  CE2        0.9920  115.5990   43.5470 C.ar   90  PHE90      -0.0003
    164  CZ         1.7320  116.0940   44.6170 C.ar   90  PHE90      -0.0000
    165  N          4.6050  112.1910   40.8030 N.am   91  MET91      -0.1964
    166  CA         4.5590  110.8520   41.4080 C.3    91  MET91       0.1722
    167  C          5.8900  110.5270   42.0760 C.2    91  MET91       0.2458
    168  O          6.9350  110.6470   41.4510 O.2    91  MET91      -0.2730
    169  CB         4.2470  109.7860   40.3670 C.3    91  MET91       0.0427
    170  CG         4.0790  108.3880   40.9310 C.3    91  MET91       0.0599
    171  SD         3.2210  107.3180   39.7430 S.3    91  MET91      -0.1393
    172  CE         3.7570  105.7150   40.2650 C.3    91  MET91       0.0692
    173  N          5.8660  110.1560   43.3520 N.am   92  PRO92      -0.2727
    174  CA         7.1030  109.7430   44.0210 C.3    92  PRO92       0.1402
    175  C          7.5960  108.3640   43.5620 C.2    92  PRO92       0.2269
    176  O          6.8240  107.5550   43.0850 O.2    92  PRO92      -0.2865
    177  CB         6.6940  109.7170   45.5050 C.3    92  PRO92       0.0296
    178  CG         5.2210  109.3740   45.4650 C.3    92  PRO92       0.0237
    179  CD         4.7130  110.1390   44.2760 C.3    92  PRO92       0.0939
    180  N          8.7560  104.7800   44.4500 N.3    94  PHE94      -0.1241
    181  CA         8.4780  103.8430   45.5220 C.3    94  PHE94       0.1605
    182  C          9.6140  102.8760   45.8120 C.2    94  PHE94       0.2264
    183  O          9.5710  102.2070   46.8170 O.2    94  PHE94      -0.2867
    184  CB         7.1760  103.1130   45.2580 C.3    94  PHE94       0.0534
    185  CG         6.0090  103.9960   45.4050 C.ar   94  PHE94      -0.0203
    186  CD1        5.4650  104.6380   44.3130 C.ar   94  PHE94      -0.0042
    187  CD2        5.4780  104.2460   46.6590 C.ar   94  PHE94      -0.0042
    188  CE1        4.3860  105.5140   44.4870 C.ar   94  PHE94      -0.0003
    189  CE2        4.4110  105.1050   46.8300 C.ar   94  PHE94      -0.0003
    190  CZ         3.8720  105.7470   45.7360 C.ar   94  PHE94      -0.0000
    191  N          8.2210  101.2360   49.3270 N.3   120  LEU120     -0.1245
    192  CA         7.7550   99.8620   49.2130 C.3   120  LEU120      0.1561
    193  C          8.9530   98.9250   49.0830 C.2   120  LEU120      0.2260
    194  O          9.9310   99.2770   48.4780 O.2   120  LEU120     -0.2867
    195  CB         6.8520   99.7030   47.9850 C.3   120  LEU120      0.0270
    196  CG         5.5410  100.5080   47.9830 C.3   120  LEU120      0.0019
    197  CD1        4.7090  100.2460   46.7050 C.3   120  LEU120      0.0001
    198  CD2        4.7060  100.2300   49.2250 C.3   120  LEU120      0.0001
    199  N          1.8860   94.9930   43.4510 N.3   128  VAL128     -0.1245
    200  CA         1.1720   96.1430   42.9020 C.3   128  VAL128      0.1561
    201  C          1.1210   95.9720   41.3600 C.2   128  VAL128      0.2260
    202  O          0.0480   96.0580   40.7490 O.2   128  VAL128     -0.2867
    203  CB         1.8710   97.4620   43.2960 C.3   128  VAL128      0.0252
    204  CG1        1.3330   98.6290   42.4970 C.3   128  VAL128      0.0019
    205  CG2        1.6940   97.7410   44.8130 C.3   128  VAL128      0.0019
    206  N         -2.0490   95.7950   38.6090 N.3   132  LEU132     -0.1245
    207  CA        -2.1120   96.7500   37.5260 C.3   132  LEU132      0.1561
    208  C         -2.2800   96.0480   36.1690 C.2   132  LEU132      0.2260
    209  O         -2.9660   96.5570   35.2730 O.2   132  LEU132     -0.2867
    210  CB        -0.8840   97.6340   37.5130 C.3   132  LEU132      0.0270
    211  CG        -0.7710   98.6900   38.6260 C.3   132  LEU132      0.0019
    212  CD1        0.5860   99.3170   38.5650 C.3   132  LEU132      0.0001
    213  CD2       -1.8810   99.7490   38.5200 C.3   132  LEU132      0.0001
@<TRIPOS>BOND
     1    91    90    2
     2    89    90    1
     3    89    88    1
     4    89    92    1
     5    90    99   am
     6    93    92    1
     7    93    94    1
     8    99   100    1
     9    94    95    1
    10   111   112   ar
    11   111   109   ar
    12   100   101    1
    13   100   103    1
    14   101   102    2
    15   112   110   ar
    16   109   106   ar
    17   110   108   ar
    18   106   108   ar
    19   106   104   ar
    20   108   107   ar
    21    95    96    2
    22   103   104    1
    23   104   105   ar
    24    97    96    1
    25   107   105   ar
    26    96    98    1
    27   145   143   ar
    28   145   146   ar
    29    86    85    2
    30   143   141   ar
    31    85    84    1
    32   146   144   ar
    33    84    83    1
    34    84    87    1
    35   137   136    1
    36   137   140    1
    37   137   138    1
    38   141   140    1
    39   141   142   ar
    40   128   126    1
    41   113   114    1
    42   144   142   ar
    43    66    65    1
    44    66    67    1
    45   138   139    2
    46   119   118    1
    47   118   120    1
    48   118   117    1
    49    65    62    1
    50   126   125    1
    51   114   117    1
    52   114   115    1
    53    67    61    1
    54    71    70    2
    55   209   208    2
    56    78    77    2
    57    74    73    1
    58    74    68    1
    59    62    61    1
    60    62    63    1
    61   125   127    1
    62   125   122    1
    63    77    76    1
    64    73    72    1
    65   115   116    2
    66   208   207    1
    67    61    58   am
    68    68    63   am
    69    68    69    1
    70   121   122    1
    71    72    69    1
    72    63    64    2
    73    70    69    1
    74    70    75   am
    75   122   123    1
    76    76    75    1
    77    76    79    1
    78   151   152    1
    79   151   148    1
    80   151   153    1
    81   147   148    1
    82    58    57    1
    83    58    59    2
    84   210   207    1
    85   210   211    1
    86   207   206    1
    87   148   149    1
    88    57    60    1
    89    57    56    1
    90    82    80    1
    91    79    80    1
    92   123   129   am
    93   123   124    2
    94   213   211    1
    95    51    50    2
    96   212   211    1
    97   129   130    1
    98    80    81    1
    99    46    44   ar
   100    46    47   ar
   101   149   154   am
   102   149   150    2
   103    56    50   am
   104    44    43   ar
   105    50    49    1
   106   154   155    1
   107    47    45   ar
   108   171   172    1
   109   171   170    1
   110   135   133    1
   111   130   133    1
   112   130   131    1
   113    43    45   ar
   114    43    42    1
   115   169   170    1
   116   169   166    1
   117   133   134    1
   118   202   201    2
   119    49    48    1
   120    49    52    1
   121   165   166    1
   122   165   156   am
   123    42    39    1
   124   158   155    1
   125   158   159    1
   126   155   156    1
   127   131   132    2
   128    54    52    1
   129    39    40    1
   130    39    38    1
   131   201   200    1
   132   166   167    1
   133   168   167    2
   134   156   157    2
   135    35    34    2
   136    40    41    2
   137    52    53    1
   138   167   173   am
   139   159   161   ar
   140   159   160   ar
   141     8     7    1
   142   161   163   ar
   143    38    34   am
   144   204   203    1
   145    34    33    1
   146   200   203    1
   147   200   199    1
   148   176   175    2
   149    55    53    1
   150    36    33    1
   151    36    37    1
   152     7     6    1
   153   160   162   ar
   154   203   205    1
   155   173   174    1
   156   173   179    1
   157   163   164   ar
   158   175   174    1
   159    33    32    1
   160   174   177    1
   161    24    23    2
   162   179   178    1
   163   186   188   ar
   164   186   185   ar
   165    25    26    1
   166    25    22    1
   167   180   181    1
   168   162   164   ar
   169   188   190   ar
   170     6     5    1
   171    32    29   am
   172    23    22    1
   173    22    21    1
   174   184   185    1
   175   184   181    1
   176   185   187   ar
   177   178   177    1
   178     5     2    1
   179   181   182    1
   180   190   189   ar
   181   182   183    2
   182    30    29    2
   183    29    28    1
   184    21    15   am
   185   187   189   ar
   186   197   196    1
   187     2     3    1
   188     2     1    1
   189    27    28    1
   190     4     3    2
   191    28    31    1
   192    12    11    2
   193    16    15    2
   194    15    14    1
   195   196   195    1
   196   196   198    1
   197   195   192    1
   198    11    10    1
   199    11    13   am
   200    10     9    1
   201   194   193    2
   202    13    14    1
   203    14    17    1
   204   193   192    1
   205   192   191    1
   206    17    18    1
   207    18    20   am
   208    18    19    2
