@<TRIPOS>MOLECULE
tmp/2c1dG01.pdb
 193 184 0 0 0
SMALL
GASTEIGER

@<TRIPOS>ATOM
      1  N         15.0960   92.2890  135.0730 N.3    69  TRP69      -0.1241
      2  CA        14.6260   90.9430  134.7240 C.3    69  TRP69       0.1605
      3  C         14.7620   89.9930  135.9340 C.2    69  TRP69       0.2264
      4  O         13.9090   89.1440  136.1590 O.2    69  TRP69      -0.2867
      5  CB        15.4310   90.4390  133.5330 C.3    69  TRP69       0.0550
      6  CG        15.1970   89.0190  133.0790 C.ar   69  TRP69       0.0003
      7  CD1       15.8410   87.8940  133.5300 C.ar   69  TRP69       0.0946
      8  CD2       14.3060   88.5770  132.0490 C.ar   69  TRP69       0.0152
      9  NE1       15.3660   86.7820  132.8810 N.ar   69  TRP69      -0.2442
     10  CE2       14.4300   87.1710  131.9590 C.ar   69  TRP69       0.0810
     11  CE3       13.3830   89.2230  131.2110 C.ar   69  TRP69       0.0012
     12  CZ2       13.6870   86.4040  131.0520 C.ar   69  TRP69       0.0191
     13  CZ3       12.6420   88.4540  130.3150 C.ar   69  TRP69       0.0001
     14  CH2       12.8000   87.0660  130.2440 C.ar   69  TRP69       0.0015
     15  N         10.1430   91.8280  141.9100 N.3    73  MET73      -0.1245
     16  CA         9.3040   93.0330  141.9180 C.3    73  MET73       0.1570
     17  C          7.8300   92.7480  142.2050 C.2    73  MET73       0.2261
     18  O          7.1240   93.5980  142.7230 O.2    73  MET73      -0.2867
     19  CB         9.3770   93.7160  140.5440 C.3    73  MET73       0.0387
     20  CG        10.7790   94.1560  140.1100 C.3    73  MET73       0.0595
     21  SD        10.8470   94.9680  138.4470 S.3    73  MET73      -0.1393
     22  CE         9.5340   93.9530  137.5340 C.3    73  MET73       0.0692
     23  N          7.6040   87.8190  142.5230 N.3    78  GLU78      -0.1231
     24  CA         7.8810   87.3590  141.1630 C.3    78  GLU78       0.1699
     25  C          8.9040   88.2420  140.4790 C.2    78  GLU78       0.2593
     26  O          8.8500   89.4710  140.5870 O.2    78  GLU78      -0.2718
     27  CB         6.6210   87.4260  140.2900 C.3    78  GLU78       0.0402
     28  CG         5.5130   86.4460  140.6350 C.3    78  GLU78       0.1161
     29  CD         4.4060   87.0560  141.4680 C.2    78  GLU78       0.3649
     30  OE1        3.4020   86.3480  141.7170 O.co2  78  GLU78      -0.2457
     31  OE2        4.5350   88.2300  141.8770 O.co2  78  GLU78      -0.2457
     32  N          9.7940   87.6030  139.7360 N.am   79  SER79      -0.1938
     33  CA        10.6100   88.2750  138.7400 C.3    79  SER79       0.2055
     34  C         10.2890   87.7080  137.3460 C.2    79  SER79       0.2643
     35  O          9.5910   86.7030  137.2170 O.2    79  SER79      -0.2714
     36  CB        12.0850   88.1030  139.0750 C.3    79  SER79       0.2130
     37  OG        12.4720   86.7640  138.9690 O.3    79  SER79      -0.2179
     38  N         10.7730   88.3630  136.3030 N.am   80  CYS80      -0.1967
     39  CA        10.6960   87.7880  134.9500 C.3    80  CYS80       0.1712
     40  C         11.3980   86.4260  134.9430 C.2    80  CYS80       0.2296
     41  O         10.8770   85.4450  134.4120 O.2    80  CYS80      -0.2864
     42  CB        11.3530   88.7070  133.9370 C.3    80  CYS80       0.0983
     43  SG        10.8820   90.4580  134.0340 S.3    80  CYS80      -0.0798
     44  N          9.6550   82.9460  135.9870 N.3    83  CYS83      -0.1221
     45  CA         8.9150   82.1650  135.0080 C.3    83  CYS83       0.1808
     46  C          9.6710   81.8640  133.7200 C.2    83  CYS83       0.2601
     47  O          9.4310   80.8360  133.0890 O.2    83  CYS83      -0.2717
     48  CB         7.6470   82.9140  134.6520 C.3    83  CYS83       0.0970
     49  SG         6.4820   82.9920  136.0050 S.3    83  CYS83      -0.0800
     50  N         10.5220   82.7930  133.2950 N.am   84  HIS84      -0.1975
     51  CA        11.1210   82.7410  131.9620 C.3    84  HIS84       0.1656
     52  C         12.5610   82.2670  132.0110 C.2    84  HIS84       0.2291
     53  O         13.1930   82.0930  130.9670 O.2    84  HIS84      -0.2864
     54  CB        11.0750   84.1340  131.3170 C.3    84  HIS84       0.0771
     55  CG         9.7140   84.5500  130.8950 C.ar   84  HIS84       0.0820
     56  ND1        8.9850   83.8500  129.9550 N.ar   84  HIS84      -0.2267
     57  CD2        8.9420   85.5900  131.2780 C.ar   84  HIS84       0.1154
     58  CE1        7.8220   84.4500  129.7750 C.ar   84  HIS84       0.1986
     59  NE2        7.7690   85.5130  130.5650 N.ar   84  HIS84      -0.2212
     60  N         13.7050   84.6660  125.3130 N.3    90  MET90      -0.1245
     61  CA        13.0740   85.5060  124.3010 C.3    90  MET90       0.1570
     62  C         13.8710   85.5910  122.9970 C.2    90  MET90       0.2261
     63  O         13.6530   86.5170  122.2200 O.2    90  MET90      -0.2867
     64  CB        12.8410   86.9220  124.8440 C.3    90  MET90       0.0387
     65  CG        12.0060   86.9870  126.1110 C.3    90  MET90       0.0595
     66  SD        10.3120   86.3900  125.7910 S.3    90  MET90      -0.1393
     67  CE         9.9050   85.8370  127.4540 C.3    90  MET90       0.0692
     68  N         12.4440   86.8080  119.2460 N.3    93  LEU93      -0.1245
     69  CA        11.1670   87.5120  119.3520 C.3    93  LEU93       0.1561
     70  C         11.2550   88.8930  118.7110 C.2    93  LEU93       0.2260
     71  O         10.4440   89.2310  117.8170 O.2    93  LEU93      -0.2867
     72  CB        10.7130   87.6060  120.8150 C.3    93  LEU93       0.0270
     73  CG         9.3540   88.2710  121.0390 C.3    93  LEU93       0.0019
     74  CD1        8.2150   87.5840  120.2470 C.3    93  LEU93       0.0001
     75  CD2        9.0360   88.3180  122.5070 C.3    93  LEU93       0.0001
     76  N          3.8320   91.8790  115.8090 N.3    99  ARG99      -0.1245
     77  CA         3.1500   90.7400  115.2290 C.3    99  ARG99       0.1563
     78  C          1.7520   90.5390  115.8130 C.2    99  ARG99       0.2260
     79  O          1.4550   90.9560  116.9140 O.2    99  ARG99      -0.2867
     80  CB         3.9900   89.4910  115.4530 C.3    99  ARG99       0.0307
     81  CG         3.8780   88.8670  116.8440 C.3    99  ARG99       0.0489
     82  CD         4.8890   87.7400  117.0710 C.3    99  ARG99       0.2205
     83  NE         4.8540   87.1760  118.4140 N.pl3  99  ARG99      -0.0865
     84  CZ         5.6010   86.1420  118.7900 C.cat  99  ARG99       0.5346
     85  NH1        6.4200   85.5640  117.9090 N.pl3  99  ARG99       0.1354
     86  NH2        5.5370   85.6880  120.0380 N.pl3  99  ARG99       0.1354
     87  N         -0.4620   88.2070  117.6730 N.3   101  ASP101     -0.1239
     88  CA        -0.2060   87.1000  118.5630 C.3   101  ASP101      0.1674
     89  C         -0.9210   85.8000  118.1350 C.2   101  ASP101      0.2266
     90  O         -2.0830   85.7930  117.7300 O.2   101  ASP101     -0.2867
     91  CB        -0.6300   87.4750  119.9680 C.3   101  ASP101      0.1410
     92  CG        -0.2460   86.4470  120.9550 C.2   101  ASP101      0.3668
     93  OD1       -1.1750   85.7140  121.4200 O.co2 101  ASP101     -0.2456
     94  OD2        0.9600   86.2930  121.3020 O.co2 101  ASP101     -0.2456
     95  N         -2.0650   83.3530  119.8280 N.3   103  HIS103     -0.1241
     96  CA        -3.1650   82.9360  120.7230 C.3   103  HIS103      0.1621
     97  C         -4.3400   83.9240  120.7960 C.2   103  HIS103      0.2264
     98  O         -5.4930   83.5100  120.7400 O.2   103  HIS103     -0.2867
     99  CB        -2.6210   82.7240  122.1430 C.3   103  HIS103      0.0745
    100  CG        -1.5130   81.7250  122.2050 C.ar  103  HIS103      0.0817
    101  ND1       -0.2720   82.0070  122.7420 N.ar  103  HIS103     -0.2268
    102  CD2       -1.4670   80.4340  121.7980 C.ar  103  HIS103      0.1154
    103  CE1        0.4900   80.9330  122.6440 C.ar  103  HIS103      0.1986
    104  NE2       -0.2120   79.9620  122.0850 N.ar  103  HIS103     -0.2212
    105  N          6.3270   95.1480  121.3860 N.3   110  MET110     -0.1245
    106  CA         6.9880   94.4970  122.4980 C.3   110  MET110      0.1570
    107  C          6.4610   95.0200  123.8180 C.2   110  MET110      0.2261
    108  O          6.3430   94.2590  124.7860 O.2   110  MET110     -0.2867
    109  CB         8.5140   94.6960  122.4300 C.3   110  MET110      0.0387
    110  CG         9.2610   93.7580  123.3300 C.3   110  MET110      0.0595
    111  SD         9.1900   92.0430  122.8090 S.3   110  MET110     -0.1393
    112  CE        10.2910   92.1270  121.3620 C.3   110  MET110      0.0692
    113  N          3.6010   93.0140  125.2100 N.3   113  TYR113     -0.1227
    114  CA         3.9740   91.7480  125.8520 C.3   113  TYR113      0.1736
    115  C          4.5360   91.9980  127.2340 C.2   113  TYR113      0.2595
    116  O          4.1550   91.3240  128.1870 O.2   113  TYR113     -0.2718
    117  CB         4.9970   90.9300  125.0330 C.3   113  TYR113      0.0548
    118  CG         4.4440   90.1390  123.8720 C.ar  113  TYR113     -0.0200
    119  CD1        5.0600   90.1830  122.6190 C.ar  113  TYR113     -0.0009
    120  CD2        3.3130   89.3460  124.0040 C.ar  113  TYR113     -0.0009
    121  CE1        4.5670   89.4530  121.5620 C.ar  113  TYR113      0.0417
    122  CE2        2.8160   88.6240  122.9530 C.ar  113  TYR113      0.0417
    123  CZ         3.4310   88.6810  121.7320 C.ar  113  TYR113      0.1957
    124  OH         2.9640   87.9320  120.6800 O.3   113  TYR113     -0.2866
    125  N          5.4200   92.9920  127.3630 N.am  114  VAL114     -0.1980
    126  CA         5.9990   93.3020  128.6750 C.3   114  VAL114      0.1595
    127  C          4.9170   93.6700  129.6640 C.2   114  VAL114      0.2287
    128  O          4.8800   93.1320  130.7730 O.2   114  VAL114     -0.2864
    129  CB         7.0780   94.4260  128.6400 C.3   114  VAL114      0.0276
    130  CG1        7.6340   94.7050  130.0520 C.3   114  VAL114      0.0022
    131  CG2        8.2210   94.0500  127.6630 C.3   114  VAL114      0.0022
    132  N          2.5850   90.7890  131.1030 N.3   117  CYS117     -0.1221
    133  CA         3.1510   90.1040  132.2630 C.3   117  CYS117      0.1808
    134  C          3.2590   90.9650  133.5090 C.2   117  CYS117      0.2601
    135  O          2.9600   90.5080  134.6120 O.2   117  CYS117     -0.2717
    136  CB         4.5000   89.4980  131.9230 C.3   117  CYS117      0.0970
    137  SG         4.3280   88.1420  130.7400 S.3   117  CYS117     -0.0800
    138  N          3.6700   92.2140  133.3520 N.am  118  VAL118     -0.1979
    139  CA         3.7620   93.1230  134.4970 C.3   118  VAL118      0.1595
    140  C          2.4010   93.2310  135.2490 C.2   118  VAL118      0.2287
    141  O          2.3740   93.1670  136.4760 O.2   118  VAL118     -0.2864
    142  CB         4.2670   94.5390  134.0630 C.3   118  VAL118      0.0276
    143  CG1        4.1540   95.5500  135.2180 C.3   118  VAL118      0.0022
    144  CG2        5.6980   94.5000  133.5310 C.3   118  VAL118      0.0022
    145  N          0.3920   89.0690  135.4370 N.3   121  ARG121     -0.1231
    146  CA         1.1620   88.0200  136.0880 C.3   121  ARG121      0.1694
    147  C          1.9910   88.4810  137.2600 C.2   121  ARG121      0.2591
    148  O          2.4380   87.6550  138.0670 O.2   121  ARG121     -0.2718
    149  CB         2.0180   87.3010  135.0660 C.3   121  ARG121      0.0321
    150  CG         1.1960   86.7820  133.9090 C.3   121  ARG121      0.0489
    151  CD         1.8950   85.7070  133.1090 C.3   121  ARG121      0.2205
    152  NE         1.0360   85.1870  132.0570 N.pl3 121  ARG121     -0.0865
    153  CZ         0.8320   85.7640  130.8820 C.cat 121  ARG121      0.5346
    154  NH1        1.4280   86.8920  130.5450 N.pl3 121  ARG121      0.1354
    155  NH2        0.0180   85.1800  130.0170 N.pl3 121  ARG121      0.1354
    156  N          2.2140   89.7830  137.3770 N.am  122  MET122     -0.1979
    157  CA         2.9760   90.2670  138.5060 C.3   122  MET122      0.1605
    158  C          2.1650   91.1740  139.4310 C.2   122  MET122      0.2287
    159  O          2.6810   91.5890  140.4710 O.2   122  MET122     -0.2864
    160  CB         4.2530   90.9380  138.0190 C.3   122  MET122      0.0413
    161  CG         5.1810   89.9740  137.3060 C.3   122  MET122      0.0598
    162  SD         6.5960   90.8350  136.6030 S.3   122  MET122     -0.1393
    163  CE         7.7750   90.5320  137.8590 C.3   122  MET122      0.0692
    164  N          3.7290   99.5460  133.4590 N.3   127  TRP127     -0.1241
    165  CA         4.8520  100.4430  133.2340 C.3   127  TRP127      0.1605
    166  C          4.5200  101.4420  132.1320 C.2   127  TRP127      0.2264
    167  O          3.8820  101.0970  131.1380 O.2   127  TRP127     -0.2867
    168  CB         6.0800   99.6310  132.8460 C.3   127  TRP127      0.0550
    169  CG         6.6700   98.7980  133.9370 C.ar  127  TRP127      0.0003
    170  CD1        6.3510   98.7980  135.2890 C.ar  127  TRP127      0.0946
    171  CD2        7.7420   97.8730  133.7830 C.ar  127  TRP127      0.0152
    172  NE1        7.1510   97.8900  135.9510 N.ar  127  TRP127     -0.2442
    173  CE2        8.0110   97.3140  135.0480 C.ar  127  TRP127      0.0810
    174  CE3        8.4900   97.4300  132.6830 C.ar  127  TRP127      0.0012
    175  CZ2        8.9930   96.3500  135.2350 C.ar  127  TRP127      0.0191
    176  CZ3        9.4670   96.5000  132.8730 C.ar  127  TRP127      0.0001
    177  CH2        9.7130   95.9620  134.1340 C.ar  127  TRP127      0.0015
    178  N         14.0370   97.1590  129.5950 N.3   137  MET137     -0.1245
    179  CA        13.5910   95.7910  129.3610 C.3   137  MET137      0.1570
    180  C         13.5930   95.5120  127.8690 C.2   137  MET137      0.2261
    181  O         14.0460   94.4530  127.4320 O.2   137  MET137     -0.2867
    182  CB        12.2160   95.5200  129.9650 C.3   137  MET137      0.0387
    183  CG        11.8650   94.0270  130.0360 C.3   137  MET137      0.0595
    184  SD        13.0450   93.1080  131.0360 S.3   137  MET137     -0.1393
    185  CE        12.5460   93.5660  132.6630 C.3   137  MET137      0.0692
    186  N         15.5580   92.6260  125.6970 N.3   141  ILE141     -0.1245
    187  CA        14.8880   91.6240  124.8730 C.3   141  ILE141      0.1561
    188  C         15.4220   91.7230  123.4790 C.2   141  ILE141      0.2260
    189  O         15.6580   90.7120  122.8320 O.2   141  ILE141     -0.2867
    190  CB        13.3400   91.7920  124.9030 C.3   141  ILE141      0.0252
    191  CG1       12.8310   91.3830  126.2810 C.3   141  ILE141      0.0019
    192  CG2       12.6960   90.9430  123.8130 C.3   141  ILE141      0.0019
    193  CD1       11.4750   91.9110  126.6160 C.3   141  ILE141      0.0001
@<TRIPOS>BOND
     1    77    80    1
     2    77    76    1
     3    77    78    1
     4    80    81    1
     5    78    79    2
     6    81    82    1
     7    82    83    1
     8    87    88    1
     9    90    89    2
    10    71    70    2
    11    85    84    1
    12    89    88    1
    13    83    84    2
    14    88    91    1
    15    70    69    1
    16    84    86    1
    17    68    69    1
    18    69    72    1
    19    95    96    1
    20    91    92    1
    21    74    73    1
    22   124   123    1
    23    96    97    1
    24    96    99    1
    25    98    97    2
    26    72    73    1
    27    92    94   ar
    28    92    93   ar
    29    73    75    1
    30   112   111    1
    31   105   106    1
    32   121   123   ar
    33   121   119   ar
    34   123   122   ar
    35   102   104   ar
    36   102   100   ar
    37   104   103   ar
    38    99   100    1
    39   100   101   ar
    40    63    62    2
    41   109   106    1
    42   109   110    1
    43   106   107    1
    44   119   118   ar
    45   103   101   ar
    46   111   110    1
    47   189   188    2
    48   122   120   ar
    49    62    61    1
    50   188   187    1
    51   192   190    1
    52   107   108    2
    53   118   120   ar
    54   118   117    1
    55    61    64    1
    56    61    60    1
    57    64    65    1
    58   187   190    1
    59   187   186    1
    60   190   191    1
    61   117   114    1
    62   113   114    1
    63    66    65    1
    64    66    67    1
    65   114   115    1
    66   191   193    1
    67   115   125   am
    68   115   116    2
    69   125   126    1
    70   181   180    2
    71   131   129    1
    72   180   179    1
    73   129   126    1
    74   129   130    1
    75   126   127    1
    76   179   178    1
    77   179   182    1
    78   127   128    2
    79    58    56   ar
    80    58    59   ar
    81    56    55   ar
    82   182   183    1
    83   155   153    1
    84   183   184    1
    85    14    13   ar
    86    14    12   ar
    87    13    11   ar
    88   154   153    1
    89    59    57   ar
    90   137   136    1
    91   153   152    2
    92    55    57   ar
    93    55    54    1
    94    53    52    2
    95   184   185    1
    96    12    10   ar
    97   132   133    1
    98   167   166    2
    99    11     8   ar
   100    54    51    1
   101   136   133    1
   102    10     8   ar
   103    10     9   ar
   104    51    52    1
   105    51    50    1
   106     8     6   ar
   107   152   151    1
   108   166   165    1
   109   133   134    1
   110   174   176   ar
   111   174   171   ar
   112   168   165    1
   113   168   169    1
   114   176   177   ar
   115     9     7   ar
   116     6     7   ar
   117     6     5    1
   118    47    46    2
   119   151   150    1
   120   165   164    1
   121    50    46   am
   122   138   134   am
   123   138   139    1
   124   134   135    2
   125   144   142    1
   126     5     2    1
   127    46    45    1
   128   171   169   ar
   129   171   173   ar
   130   150   149    1
   131    42    43    1
   132    42    39    1
   133   169   170   ar
   134   142   139    1
   135   142   143    1
   136   177   175   ar
   137    41    40    2
   138   139   140    1
   139    48    45    1
   140    48    49    1
   141     2     1    1
   142     2     3    1
   143    40    39    1
   144    39    38    1
   145    45    44    1
   146   173   175   ar
   147   173   172   ar
   148   149   146    1
   149   140   141    2
   150   170   172   ar
   151   145   146    1
   152     3     4    2
   153   146   147    1
   154    38    34   am
   155   162   161    1
   156   162   163    1
   157    35    34    2
   158   147   156   am
   159   147   148    2
   160   161   160    1
   161    34    33    1
   162   156   157    1
   163    22    21    1
   164   160   157    1
   165    21    20    1
   166   157   158    1
   167    33    36    1
   168    33    32    1
   169    37    36    1
   170   158   159    2
   171    32    25   am
   172    20    19    1
   173    27    28    1
   174    27    24    1
   175    25    26    2
   176    25    24    1
   177    19    16    1
   178    28    29    1
   179    24    23    1
   180    29    30   ar
   181    29    31   ar
   182    15    16    1
   183    16    17    1
   184    17    18    2
