@<TRIPOS>MOLECULE
tmp/2c1eB00.pdb
 131 135 0 0 0
SMALL
GASTEIGER

@<TRIPOS>ATOM
      1  N         39.8680   32.4450   36.5500 N.3    30  TYR30      -0.1227
      2  CA        39.2080   32.4030   35.2530 C.3    30  TYR30       0.1736
      3  C         38.8700   30.9340   35.0180 C.2    30  TYR30       0.2596
      4  O         39.4550   30.0500   35.6450 O.2    30  TYR30      -0.2718
      5  CB        40.1590   32.8170   34.1290 C.3    30  TYR30       0.0548
      6  CG        40.4720   34.2890   33.9980 C.ar   30  TYR30      -0.0200
      7  CD1       41.7370   34.7770   34.3130 C.ar   30  TYR30      -0.0009
      8  CD2       39.5350   35.1780   33.4750 C.ar   30  TYR30      -0.0009
      9  CE1       42.0690   36.1110   34.1020 C.ar   30  TYR30       0.0417
     10  CE2       39.8560   36.5200   33.2630 C.ar   30  TYR30       0.0417
     11  CZ        41.1270   36.9750   33.5770 C.ar   30  TYR30       0.1957
     12  OH        41.4640   38.2920   33.3560 O.3    30  TYR30      -0.2866
     13  N         37.9370   30.6840   34.1070 N.am   31  SER31      -0.1938
     14  CA        37.5550   29.3270   33.7380 C.3    31  SER31       0.2055
     15  C         37.7960   29.2570   32.2360 C.2    31  SER31       0.2643
     16  O         37.4330   30.1850   31.5100 O.2    31  SER31      -0.2714
     17  CB        36.0810   29.0640   34.0450 C.3    31  SER31       0.2130
     18  OG        35.7360   27.7400   33.6620 O.3    31  SER31      -0.2179
     19  N         38.4020   28.1620   31.7800 N.am   32  TRP32      -0.1959
     20  CA        38.7420   27.9900   30.3690 C.3    32  TRP32       0.1771
     21  C         37.7820   27.1900   29.5010 C.2    32  TRP32       0.2620
     22  O         37.1990   26.1930   29.9300 O.2    32  TRP32      -0.2715
     23  CB        40.1350   27.3750   30.2440 C.3    32  TRP32       0.0590
     24  CG        41.2170   28.2790   30.7140 C.ar   32  TRP32       0.0006
     25  CD1       41.7710   28.3240   31.9630 C.ar   32  TRP32       0.0946
     26  CD2       41.8610   29.3020   29.9490 C.ar   32  TRP32       0.0152
     27  NE1       42.7240   29.3150   32.0200 N.ar   32  TRP32      -0.2442
     28  CE2       42.7990   29.9310   30.7980 C.ar   32  TRP32       0.0810
     29  CE3       41.7360   29.7510   28.6260 C.ar   32  TRP32       0.0012
     30  CZ2       43.6110   30.9860   30.3660 C.ar   32  TRP32       0.0191
     31  CZ3       42.5430   30.8000   28.1970 C.ar   32  TRP32       0.0001
     32  CH2       43.4690   31.4050   29.0670 C.ar   32  TRP32       0.0015
     33  N         37.6590   27.6320   28.2540 N.am   33  ARG33      -0.1963
     34  CA        36.7830   26.9970   27.2810 C.3    33  ARG33       0.1729
     35  C         37.4450   26.9430   25.9080 C.2    33  ARG33       0.2616
     36  O         37.9620   27.9490   25.4230 O.2    33  ARG33      -0.2715
     37  CB        35.4700   27.7810   27.1980 C.3    33  ARG33       0.0348
     38  CG        34.5760   27.4350   26.0190 C.3    33  ARG33       0.0492
     39  CD        33.2110   28.1010   26.1810 C.3    33  ARG33       0.2205
     40  NE        33.3430   29.4980   26.5850 N.pl3  33  ARG33      -0.0865
     41  CZ        33.7690   30.4720   25.7900 C.cat  33  ARG33       0.5346
     42  NH1       34.0990   30.2100   24.5340 N.pl3  33  ARG33       0.1354
     43  NH2       33.8940   31.7050   26.2620 N.pl3  33  ARG33       0.1354
     44  N         37.4380   25.7680   25.2870 N.am   34  ASN34      -0.1958
     45  CA        38.0190   25.6210   23.9570 C.3    34  ASN34       0.1819
     46  C         36.9320   26.0240   22.9660 C.2    34  ASN34       0.2622
     47  O         35.8400   25.4540   22.9640 O.2    34  ASN34      -0.2715
     48  CB        38.4630   24.1740   23.7270 C.3    34  ASN34       0.1195
     49  CG        39.1440   23.9800   22.3880 C.2    34  ASN34       0.2630
     50  OD1       38.4900   23.9310   21.3460 O.2    34  ASN34      -0.2716
     51  ND2       40.4700   23.8800   22.4080 N.am   34  ASN34      -0.0877
     52  N         37.2300   27.0200   22.1370 N.am   35  SER35      -0.1950
     53  CA        36.2670   27.5370   21.1700 C.3    35  SER35       0.1924
     54  C         35.6310   26.4930   20.2610 C.2    35  SER35       0.2314
     55  O         34.5680   26.7330   19.6880 O.2    35  SER35      -0.2863
     56  CB        36.9190   28.6290   20.3160 C.3    35  SER35       0.2116
     57  OG        38.0230   28.1190   19.5920 O.3    35  SER35      -0.2180
     58  N         34.0240   23.7180   26.9940 N.3    39  SER39      -0.1202
     59  CA        34.7900   23.9940   28.2070 C.3    39  SER39       0.2020
     60  C         35.5040   22.7480   28.7190 C.2    39  SER39       0.2618
     61  O         34.9970   21.6330   28.5880 O.2    39  SER39      -0.2717
     62  CB        33.8760   24.5510   29.3070 C.3    39  SER39       0.2103
     63  OG        32.9190   23.5900   29.7270 O.3    39  SER39      -0.2182
     64  N         36.6820   22.9390   29.3040 N.am   40  TRP40      -0.1975
     65  CA        37.4420   21.8080   29.8270 C.3    40  TRP40       0.1640
     66  C         36.6350   21.0660   30.8830 C.2    40  TRP40       0.2290
     67  O         36.6140   19.8320   30.9200 O.2    40  TRP40      -0.2864
     68  CB        38.7450   22.2820   30.4680 C.3    40  TRP40       0.0576
     69  CG        39.6410   23.0710   29.5780 C.ar   40  TRP40       0.0006
     70  CD1       39.5630   23.1990   28.2160 C.ar   40  TRP40       0.0946
     71  CD2       40.7950   23.8080   29.9870 C.ar   40  TRP40       0.0152
     72  NE1       40.6090   23.9710   27.7560 N.ar   40  TRP40      -0.2442
     73  CE2       41.3800   24.3550   28.8240 C.ar   40  TRP40       0.0810
     74  CE3       41.3970   24.0540   31.2280 C.ar   40  TRP40       0.0012
     75  CZ2       42.5380   25.1390   28.8650 C.ar   40  TRP40       0.0191
     76  CZ3       42.5500   24.8330   31.2710 C.ar   40  TRP40       0.0001
     77  CH2       43.1090   25.3650   30.0940 C.ar   40  TRP40       0.0015
     78  N         45.8350   22.6130   29.3910 N.3    74  GLU74      -0.1231
     79  CA        46.7170   23.7610   29.5650 C.3    74  GLU74       0.1699
     80  C         46.3570   24.7160   28.4370 C.2    74  GLU74       0.2593
     81  O         46.3020   24.3160   27.2750 O.2    74  GLU74      -0.2718
     82  CB        48.1910   23.3570   29.4770 C.3    74  GLU74       0.0402
     83  CG        49.1380   24.5440   29.6080 C.3    74  GLU74       0.1161
     84  CD        50.5940   24.1370   29.7020 C.2    74  GLU74       0.3649
     85  OE1       51.4460   24.9060   29.2110 O.co2  74  GLU74      -0.2457
     86  OE2       50.8890   23.0640   30.2750 O.co2  74  GLU74      -0.2457
     87  N         46.1010   25.9730   28.7790 N.am   75  SER75      -0.1938
     88  CA        45.6930   26.9530   27.7780 C.3    75  SER75       0.2055
     89  C         46.7240   27.2660   26.7060 C.2    75  SER75       0.2643
     90  O         47.9290   27.1010   26.9010 O.2    75  SER75      -0.2714
     91  CB        45.2830   28.2640   28.4550 C.3    75  SER75       0.2130
     92  OG        46.4190   29.0030   28.8730 O.3    75  SER75      -0.2179
     93  N         46.2160   27.7140   25.5640 N.am   76  PHE76      -0.1959
     94  CA        47.0360   28.1270   24.4340 C.3    76  PHE76       0.1771
     95  C         46.5070   29.4990   24.0520 C.2    76  PHE76       0.2620
     96  O         45.3060   29.6630   23.8180 O.2    76  PHE76      -0.2715
     97  CB        46.8660   27.1970   23.2330 C.3    76  PHE76       0.0574
     98  CG        47.6840   27.6130   22.0400 C.ar   76  PHE76      -0.0200
     99  CD1       49.0320   27.2860   21.9600 C.ar   76  PHE76      -0.0042
    100  CD2       47.1180   28.3780   21.0230 C.ar   76  PHE76      -0.0042
    101  CE1       49.8120   27.7160   20.8840 C.ar   76  PHE76      -0.0003
    102  CE2       47.8920   28.8160   19.9410 C.ar   76  PHE76      -0.0003
    103  CZ        49.2380   28.4830   19.8740 C.ar   76  PHE76      -0.0000
    104  N         47.3900   30.4860   23.9890 N.am   77  SER77      -0.1936
    105  CA        46.9640   31.8320   23.6330 C.3    77  SER77       0.2055
    106  C         48.0900   32.6270   23.0040 C.2    77  SER77       0.2643
    107  O         49.2410   32.5180   23.4150 O.2    77  SER77      -0.2714
    108  CB        46.4620   32.5740   24.8740 C.3    77  SER77       0.2130
    109  OG        46.0660   33.8960   24.5490 O.3    77  SER77      -0.2179
    110  N         47.7510   33.4280   22.0010 N.am   78  PHE78      -0.1973
    111  CA        48.7450   34.2620   21.3460 C.3    78  PHE78       0.1639
    112  C         49.1570   35.3760   22.3120 C.2    78  PHE78       0.2290
    113  O         50.2020   36.0040   22.1430 O.2    78  PHE78      -0.2864
    114  CB        48.1670   34.8350   20.0500 C.3    78  PHE78       0.0560
    115  CG        47.9430   33.7960   18.9780 C.ar   78  PHE78      -0.0200
    116  CD1       46.8820   33.9120   18.0870 C.ar   78  PHE78      -0.0042
    117  CD2       48.8000   32.7050   18.8570 C.ar   78  PHE78      -0.0042
    118  CE1       46.6760   32.9560   17.0910 C.ar   78  PHE78      -0.0003
    119  CE2       48.6050   31.7430   17.8670 C.ar   78  PHE78      -0.0003
    120  CZ        47.5400   31.8690   16.9820 C.ar   78  PHE78      -0.0000
    121  N         47.7380   35.0780   28.8870 N.3    82  PHE82      -0.1241
    122  CA        46.7800   33.9900   29.0430 C.3    82  PHE82       0.1605
    123  C         47.2750   32.6480   28.5270 C.2    82  PHE82       0.2264
    124  O         46.5100   31.6850   28.4680 O.2    82  PHE82      -0.2867
    125  CB        45.4740   34.3360   28.3220 C.3    82  PHE82       0.0534
    126  CG        44.7150   35.4710   28.9450 C.ar   82  PHE82      -0.0203
    127  CD1       45.1430   36.7830   28.7890 C.ar   82  PHE82      -0.0042
    128  CD2       43.5710   35.2240   29.6940 C.ar   82  PHE82      -0.0042
    129  CE1       44.4390   37.8360   29.3690 C.ar   82  PHE82      -0.0003
    130  CE2       42.8610   36.2700   30.2790 C.ar   82  PHE82      -0.0003
    131  CZ        43.2980   37.5760   30.1160 C.ar   82  PHE82      -0.0000
@<TRIPOS>BOND
     1   120   118   ar
     2   120   119   ar
     3   118   116   ar
     4   119   117   ar
     5   116   115   ar
     6   117   115   ar
     7   115   114    1
     8    57    56    1
     9    55    54    2
    10   103   102   ar
    11   103   101   ar
    12   102   100   ar
    13   114   111    1
    14    54    53    1
    15    56    53    1
    16   101    99   ar
    17   100    98   ar
    18    53    52    1
    19    50    49    2
    20   111   110    1
    21   111   112    1
    22    99    98   ar
    23   110   106   am
    24    98    97    1
    25    52    46   am
    26   113   112    2
    27    49    51   am
    28    49    48    1
    29    47    46    2
    30    46    45    1
    31   106   107    2
    32   106   105    1
    33    97    94    1
    34   105   104    1
    35   105   108    1
    36    48    45    1
    37    96    95    2
    38    45    44    1
    39   104    95   am
    40    95    94    1
    41    94    93    1
    42    42    41    1
    43   109   108    1
    44    44    35   am
    45    36    35    2
    46    93    89   am
    47    41    43    1
    48    41    40    2
    49    35    34    1
    50    38    39    1
    51    38    37    1
    52    39    40    1
    53    89    90    2
    54    89    88    1
    55    58    59    1
    56    37    34    1
    57    81    80    2
    58    34    33    1
    59    72    70   ar
    60    72    73   ar
    61    88    91    1
    62    88    87    1
    63    31    29   ar
    64    31    32   ar
    65    59    60    1
    66    59    62    1
    67    70    69   ar
    68    33    21   am
    69   125   126    1
    70   125   122    1
    71    80    87   am
    72    80    79    1
    73    91    92    1
    74   124   123    2
    75   123   122    1
    76    61    60    2
    77    29    26   ar
    78    60    64   am
    79   127   126   ar
    80   127   129   ar
    81    73    75   ar
    82    73    71   ar
    83    75    77   ar
    84   121   122    1
    85   126   128   ar
    86    32    30   ar
    87    85    84   ar
    88    64    65    1
    89    62    63    1
    90   129   131   ar
    91    78    79    1
    92    82    79    1
    93    82    83    1
    94    21    22    2
    95    21    20    1
    96    69    71   ar
    97    69    68    1
    98    83    84    1
    99   128   130   ar
   100    84    86   ar
   101    65    68    1
   102    65    66    1
   103    26    24   ar
   104    26    28   ar
   105    71    74   ar
   106    77    76   ar
   107   131   130   ar
   108    23    20    1
   109    23    24    1
   110    30    28   ar
   111    20    19    1
   112    24    25   ar
   113    28    27   ar
   114    66    67    2
   115    74    76   ar
   116    16    15    2
   117    19    15   am
   118    25    27   ar
   119    15    14    1
   120    10     8   ar
   121    10    11   ar
   122    12    11    1
   123     8     6   ar
   124    11     9   ar
   125    18    17    1
   126    14    17    1
   127    14    13    1
   128     6     5    1
   129     6     7   ar
   130     9     7   ar
   131    13     3   am
   132     5     2    1
   133     3     2    1
   134     3     4    2
   135     2     1    1
