@<TRIPOS>MOLECULE
tmp/2c1hB00.pdb
 143 136 0 0 0
SMALL
GASTEIGER

@<TRIPOS>ATOM
      1  N         97.9150   -9.5450  -22.9160 N.3    75  PHE75      -0.1241
      2  CA        98.3650   -8.2400  -23.3940 C.3    75  PHE75       0.1605
      3  C         99.5220   -8.4400  -24.3540 C.2    75  PHE75       0.2264
      4  O        100.4540   -9.1950  -24.0620 O.2    75  PHE75      -0.2867
      5  CB        98.8480   -7.3700  -22.2360 C.3    75  PHE75       0.0534
      6  CG        97.7640   -6.9410  -21.3000 C.ar   75  PHE75      -0.0203
      7  CD1       97.1290   -5.7150  -21.4680 C.ar   75  PHE75      -0.0042
      8  CD2       97.3850   -7.7550  -20.2340 C.ar   75  PHE75      -0.0042
      9  CE1       96.1270   -5.3110  -20.5960 C.ar   75  PHE75      -0.0003
     10  CE2       96.3820   -7.3590  -19.3570 C.ar   75  PHE75      -0.0003
     11  CZ        95.7520   -6.1340  -19.5370 C.ar   75  PHE75      -0.0000
     12  N         96.4020    1.0280  -26.6660 N.3   118  ASP118     -0.1239
     13  CA        97.4330    1.6660  -25.8380 C.3   118  ASP118      0.1674
     14  C         98.8880    1.3080  -26.2210 C.2   118  ASP118      0.2266
     15  O         99.6950    2.2130  -26.4650 O.2   118  ASP118     -0.2867
     16  CB        97.1570    1.4250  -24.3420 C.3   118  ASP118      0.1410
     17  CG        97.8730    2.4260  -23.4470 C.2   118  ASP118      0.3668
     18  OD1       97.1850    3.2830  -22.8520 O.co2 118  ASP118     -0.2456
     19  OD2       99.1190    2.3670  -23.3430 O.co2 118  ASP118     -0.2456
     20  N         94.4970    5.0990  -25.3910 N.3   126  ASP126     -0.1239
     21  CA        93.6320    3.9550  -25.6920 C.3   126  ASP126      0.1674
     22  C         92.9770    4.0590  -27.0690 C.2   126  ASP126      0.2266
     23  O         92.5250    3.0520  -27.6220 O.2   126  ASP126     -0.2867
     24  CB        92.5690    3.7810  -24.6010 C.3   126  ASP126      0.1410
     25  CG        93.1700    3.4170  -23.2520 C.2   126  ASP126      0.3668
     26  OD1       94.3090    3.8460  -22.9570 O.co2 126  ASP126     -0.2456
     27  OD2       92.5020    2.7040  -22.4800 O.co2 126  ASP126     -0.2456
     28  N         89.4060   -2.4770  -22.6860 N.3   161  SER161     -0.1217
     29  CA        89.8070   -1.5700  -21.6070 C.3   161  SER161      0.1889
     30  C         89.8680   -0.0990  -22.0370 C.2   161  SER161      0.2288
     31  O         90.3700    0.7590  -21.3020 O.2   161  SER161     -0.2866
     32  CB        91.1540   -2.0140  -21.0280 C.3   161  SER161      0.2089
     33  OG        92.1950   -1.9210  -21.9850 O.3   161  SER161     -0.2183
     34  N         85.4220   -3.2440  -19.2910 N.3   188  TYR188     -0.1241
     35  CA        85.9540   -2.3120  -18.3050 C.3   188  TYR188      0.1605
     36  C         84.9630   -1.1570  -18.2190 C.2   188  TYR188      0.2264
     37  O         85.1790   -0.0870  -18.7940 O.2   188  TYR188     -0.2867
     38  CB        87.3330   -1.8020  -18.7200 C.3   188  TYR188      0.0534
     39  CG        88.4640   -2.8000  -18.5810 C.ar  188  TYR188     -0.0201
     40  CD1       88.4630   -4.0010  -19.2930 C.ar  188  TYR188     -0.0009
     41  CD2       89.5590   -2.5220  -17.7580 C.ar  188  TYR188     -0.0009
     42  CE1       89.5200   -4.9140  -19.1720 C.ar  188  TYR188      0.0417
     43  CE2       90.6200   -3.4180  -17.6350 C.ar  188  TYR188      0.0417
     44  CZ        90.5920   -4.6150  -18.3410 C.ar  188  TYR188      0.1957
     45  OH        91.6370   -5.5060  -18.2190 O.3   188  TYR188     -0.2866
     46  N         86.1470    2.2390  -15.5070 N.3   191  LYS191     -0.1245
     47  CA        87.5960    2.3940  -15.4370 C.3   191  LYS191      0.1561
     48  C         87.9390    3.8600  -15.1650 C.2   191  LYS191      0.2260
     49  O         87.4880    4.7650  -15.8810 O.2   191  LYS191     -0.2867
     50  CB        88.2330    1.9180  -16.7380 C.3   191  LYS191      0.0271
     51  CG        89.7220    1.6320  -16.6860 C.3   191  LYS191      0.0035
     52  CD        90.2150    1.3380  -18.0880 C.3   191  LYS191      0.0206
     53  CE        91.3760    0.3720  -18.1020 C.3   191  LYS191      0.1093
     54  NZ        92.7200    1.0300  -18.0310 N.3   191  LYS191     -0.1314
     55  N         98.4410    3.1940  -12.3020 N.3   197  TYR197     -0.1241
     56  CA        98.8160    2.3810  -13.4690 C.3   197  TYR197      0.1605
     57  C        100.2790    2.5300  -13.9030 C.2   197  TYR197      0.2264
     58  O        100.6550    2.0660  -14.9870 O.2   197  TYR197     -0.2867
     59  CB        97.9160    2.6820  -14.6760 C.3   197  TYR197      0.0534
     60  CG        96.4300    2.7090  -14.4170 C.ar  197  TYR197     -0.0201
     61  CD1       95.8170    1.7490  -13.6130 C.ar  197  TYR197     -0.0009
     62  CD2       95.6290    3.6820  -15.0120 C.ar  197  TYR197     -0.0009
     63  CE1       94.4460    1.7750  -13.3850 C.ar  197  TYR197      0.0417
     64  CE2       94.2600    3.7130  -14.7980 C.ar  197  TYR197      0.0417
     65  CZ        93.6740    2.7570  -13.9830 C.ar  197  TYR197      0.1957
     66  OH        92.3170    2.7910  -13.7680 O.3   197  TYR197     -0.2866
     67  N        102.3320   -0.7430  -14.7350 N.3   200  PHE200     -0.1227
     68  CA       101.7490   -1.4230  -15.8990 C.3   200  PHE200      0.1736
     69  C        102.2130   -0.7800  -17.2020 C.2   200  PHE200      0.2595
     70  O        102.3550   -1.4580  -18.2230 O.2   200  PHE200     -0.2718
     71  CB       100.2200   -1.3840  -15.8190 C.3   200  PHE200      0.0547
     72  CG        99.5200   -1.9540  -17.0280 C.ar  200  PHE200     -0.0202
     73  CD1       99.0300   -1.1140  -18.0240 C.ar  200  PHE200     -0.0042
     74  CD2       99.3400   -3.3280  -17.1650 C.ar  200  PHE200     -0.0042
     75  CE1       98.3780   -1.6310  -19.1410 C.ar  200  PHE200     -0.0003
     76  CE2       98.6860   -3.8580  -18.2740 C.ar  200  PHE200     -0.0003
     77  CZ        98.2050   -3.0080  -19.2660 C.ar  200  PHE200     -0.0000
     78  N        102.4430    0.5300  -17.1460 N.am  201  ARG201     -0.1980
     79  CA       102.7550    1.3480  -18.3150 C.3   201  ARG201      0.1597
     80  C        104.1360    1.0700  -18.8990 C.2   201  ARG201      0.2287
     81  O        104.2940    1.0060  -20.1200 O.2   201  ARG201     -0.2864
     82  CB       102.6300    2.8260  -17.9540 C.3   201  ARG201      0.0334
     83  CG       102.1600    3.6870  -19.0930 C.3   201  ARG201      0.0492
     84  CD       101.0260    4.5670  -18.6310 C.3   201  ARG201      0.2205
     85  NE       100.1230    4.8730  -19.7330 N.pl3 201  ARG201     -0.0865
     86  CZ        98.9020    5.3810  -19.5980 C.cat 201  ARG201      0.5346
     87  NH1       98.4010    5.6500  -18.3960 N.pl3 201  ARG201      0.1354
     88  NH2       98.1740    5.6120  -20.6800 N.pl3 201  ARG201      0.1354
     89  N         94.5710   10.9760  -19.1690 N.3   213  LYS213     -0.1245
     90  CA        93.4780   10.3250  -19.8850 C.3   213  LYS213      0.1561
     91  C         92.1240   10.6420  -19.2460 C.2   213  LYS213      0.2260
     92  O         91.2310    9.7910  -19.1670 O.2   213  LYS213     -0.2867
     93  CB        93.7320    8.8150  -19.9570 C.3   213  LYS213      0.0271
     94  CG        95.1970    8.4530  -20.2210 C.3   213  LYS213      0.0035
     95  CD        95.3590    7.0990  -20.8890 C.3   213  LYS213      0.0206
     96  CE        94.9720    5.9510  -19.9810 C.3   213  LYS213      0.1093
     97  NZ        95.2290    4.6470  -20.6340 N.3   213  LYS213     -0.1314
     98  N         87.7010   -0.7140  -12.1270 N.3   244  LYS244     -0.1245
     99  CA        89.1480   -0.5270  -12.1080 C.3   244  LYS244      0.1561
    100  C         89.5200    0.9170  -11.7570 C.2   244  LYS244      0.2260
    101  O         88.9370    1.8530  -12.3150 O.2   244  LYS244     -0.2867
    102  CB        89.7460   -0.9030  -13.4650 C.3   244  LYS244      0.0271
    103  CG        91.2560   -0.8330  -13.5050 C.3   244  LYS244      0.0035
    104  CD        91.7930   -1.1100  -14.8820 C.3   244  LYS244      0.0206
    105  CE        93.2720   -1.3660  -14.8030 C.3   244  LYS244      0.1093
    106  NZ        93.9350   -1.2040  -16.0930 N.3   244  LYS244     -0.1314
    107  N         90.0050   -5.2760  -11.1150 N.3   267  TYR267     -0.1241
    108  CA        91.4160   -5.3290  -11.4470 C.3   267  TYR267      0.1605
    109  C         92.2840   -4.9490  -10.2550 C.2   267  TYR267      0.2264
    110  O         92.1350   -3.8740   -9.6810 O.2   267  TYR267     -0.2867
    111  CB        91.7190   -4.4400  -12.6470 C.3   267  TYR267      0.0534
    112  CG        92.8310   -4.9680  -13.5160 C.ar  267  TYR267     -0.0201
    113  CD1       92.5770   -5.3810  -14.8250 C.ar  267  TYR267     -0.0009
    114  CD2       94.1380   -5.0600  -13.0340 C.ar  267  TYR267     -0.0009
    115  CE1       93.6020   -5.8600  -15.6360 C.ar  267  TYR267      0.0417
    116  CE2       95.1660   -5.5450  -13.8320 C.ar  267  TYR267      0.0417
    117  CZ        94.8930   -5.9390  -15.1340 C.ar  267  TYR267      0.1957
    118  OH        95.9060   -6.4150  -15.9340 O.3   267  TYR267     -0.2866
    119  N         95.3400   -3.6790   -9.6720 N.3   269  VAL269     -0.1231
    120  CA        96.2650   -2.9390  -10.5360 C.3   269  VAL269      0.1692
    121  C         97.7350   -3.0490  -10.1220 C.2   269  VAL269      0.2592
    122  O         98.0480   -3.3660   -8.9690 O.2   269  VAL269     -0.2718
    123  CB        95.8570   -1.4470  -10.6970 C.3   269  VAL269      0.0266
    124  CG1       94.5360   -1.3380  -11.4260 C.3   269  VAL269      0.0020
    125  CG2       95.7820   -0.7370   -9.3440 C.3   269  VAL269      0.0020
    126  N         98.6190   -2.7750  -11.0810 N.am  270  SER270     -0.1952
    127  CA       100.0710   -2.8610  -10.8890 C.3   270  SER270      0.1924
    128  C        100.5930   -1.9960   -9.7360 C.2   270  SER270      0.2314
    129  O        101.4760   -2.4200   -8.9980 O.2   270  SER270     -0.2863
    130  CB       100.8040   -2.5100  -12.1840 C.3   270  SER270      0.2116
    131  OG       100.6920   -1.1300  -12.4800 O.3   270  SER270     -0.2180
    132  N         97.9980   -9.9180  -10.4760 N.3   309  TYR309     -0.1241
    133  CA        99.3480  -10.3710  -10.8230 C.3   309  TYR309      0.1605
    134  C         99.9120  -11.3280   -9.7690 C.2   309  TYR309      0.2264
    135  O        100.9610  -11.9400   -9.9760 O.2   309  TYR309     -0.2867
    136  CB       100.2790   -9.1690  -11.0280 C.3   309  TYR309      0.0534
    137  CG        99.7460   -8.1550  -12.0130 C.ar  309  TYR309     -0.0201
    138  CD1       99.7870   -8.4020  -13.3830 C.ar  309  TYR309     -0.0009
    139  CD2       99.1980   -6.9500  -11.5770 C.ar  309  TYR309     -0.0009
    140  CE1       99.2950   -7.4750  -14.2950 C.ar  309  TYR309      0.0417
    141  CE2       98.7040   -6.0170  -12.4770 C.ar  309  TYR309      0.0417
    142  CZ        98.7520   -6.2870  -13.8380 C.ar  309  TYR309      0.1957
    143  OH        98.2650   -5.3680  -14.7440 O.3   309  TYR309     -0.2866
@<TRIPOS>BOND
     1    23    22    2
     2    22    21    1
     3    12    13    1
     4    15    14    2
     5    14    13    1
     6    13    16    1
     7    21    20    1
     8    21    24    1
     9    24    25    1
    10     3     4    2
    11     3     2    1
    12    16    17    1
    13    17    19   ar
    14    17    18   ar
    15     2     1    1
    16     2     5    1
    17    25    26   ar
    18    25    27   ar
    19    28    29    1
    20     5     6    1
    21    30    29    1
    22    30    31    2
    23    33    32    1
    24    29    32    1
    25     7     6   ar
    26     7     9   ar
    27     6     8   ar
    28    95    94    1
    29    95    96    1
    30    88    86    1
    31    97    96    1
    32     9    11   ar
    33     8    10   ar
    34    94    93    1
    35    81    80    2
    36    93    90    1
    37    90    91    1
    38    90    89    1
    39    85    86    2
    40    85    84    1
    41    86    87    1
    42    11    10   ar
    43    40    42   ar
    44    40    39   ar
    45    34    35    1
    46    77    75   ar
    47    77    76   ar
    48    91    92    2
    49    42    44   ar
    50    75    73   ar
    51    83    84    1
    52    83    82    1
    53    80    79    1
    54    37    36    2
    55    38    39    1
    56    38    35    1
    57    39    41   ar
    58    44    45    1
    59    44    43   ar
    60    79    82    1
    61    79    78    1
    62    35    36    1
    63    76    74   ar
    64    70    69    2
    65    53    52    1
    66    53    54    1
    67    52    51    1
    68    73    72   ar
    69    41    43   ar
    70    69    78   am
    71    69    68    1
    72    74    72   ar
    73    72    71    1
    74    50    51    1
    75    50    47    1
    76   106   105    1
    77   118   117    1
    78    68    71    1
    79    68    67    1
    80    49    48    2
    81   115   117   ar
    82   115   113   ar
    83    46    47    1
    84    47    48    1
    85   117   116   ar
    86    62    64   ar
    87    62    60   ar
    88    58    57    2
    89   104   105    1
    90   104   103    1
    91   113   112   ar
    92    64    65   ar
    93   143   142    1
    94    59    60    1
    95    59    56    1
    96    60    61   ar
    97   140   142   ar
    98   140   138   ar
    99    65    66    1
   100    65    63   ar
   101    57    56    1
   102   142   141   ar
   103   116   114   ar
   104    61    63   ar
   105   112   114   ar
   106   112   111    1
   107   103   102    1
   108    56    55    1
   109   102    99    1
   110   138   137   ar
   111   111   108    1
   112   131   130    1
   113   141   139   ar
   114   101   100    2
   115   130   127    1
   116    98    99    1
   117    99   100    1
   118   137   139   ar
   119   137   136    1
   120   108   107    1
   121   108   109    1
   122   124   123    1
   123   126   127    1
   124   126   121   am
   125   136   133    1
   126   127   128    1
   127   133   132    1
   128   133   134    1
   129   123   120    1
   130   123   125    1
   131   120   121    1
   132   120   119    1
   133   109   110    2
   134   121   122    2
   135   135   134    2
   136   128   129    2
