@<TRIPOS>MOLECULE
tmp/2c1lA00.pdb
 93 87 0 0 0
SMALL
GASTEIGER

@<TRIPOS>ATOM
      1  N         42.2620   26.8830   59.9890 N.3    44  PHE44      -0.1241
      2  CA        41.0830   27.6580   60.2940 C.3    44  PHE44       0.1605
      3  C         40.0160   26.7060   60.8240 C.2    44  PHE44       0.2264
      4  O         39.9140   25.5620   60.3760 O.2    44  PHE44      -0.2867
      5  CB        40.5050   28.3550   59.0450 C.3    44  PHE44       0.0534
      6  CG        41.4080   29.4510   58.4500 C.ar   44  PHE44      -0.0203
      7  CD1       42.5600   29.1040   57.7550 C.ar   44  PHE44      -0.0042
      8  CD2       41.1080   30.7930   58.6050 C.ar   44  PHE44      -0.0042
      9  CE1       43.4000   30.0690   57.2000 C.ar   44  PHE44      -0.0003
     10  CE2       41.9750   31.7750   58.0440 C.ar   44  PHE44      -0.0003
     11  CZ        43.0700   31.4210   57.3580 C.ar   44  PHE44      -0.0000
     12  N         35.7040   26.8660   62.4850 N.3    46  ASN46      -0.1240
     13  CA        34.5660   27.5410   63.0690 C.3    46  ASN46       0.1653
     14  C         33.4900   26.5510   63.4270 C.2    46  ASN46       0.2266
     15  O         33.6040   25.3790   63.1330 O.2    46  ASN46      -0.2867
     16  CB        34.0730   28.7760   62.2450 C.3    46  ASN46       0.1155
     17  CG        33.3020   28.4490   60.9550 C.2    46  ASN46       0.2627
     18  OD1       32.9790   27.2240   60.6960 O.2    46  ASN46      -0.2716
     19  ND2       32.9940   29.4360   60.1560 N.am   46  ASN46      -0.0877
     20  N         41.5790   36.1550   62.2960 N.3    78  ARG78      -0.1231
     21  CA        40.4910   35.2240   62.6040 C.3    78  ARG78       0.1694
     22  C         40.7490   33.8160   61.9990 C.2    78  ARG78       0.2591
     23  O         40.3530   33.5340   60.8830 O.2    78  ARG78      -0.2718
     24  CB        39.1840   35.7990   62.0560 C.3    78  ARG78       0.0321
     25  CG        38.7940   37.0790   62.7610 C.3    78  ARG78       0.0489
     26  CD        37.7370   37.8760   62.0970 C.3    78  ARG78       0.2205
     27  NE        36.4390   37.2660   61.9940 N.pl3  78  ARG78      -0.0865
     28  CZ        35.4410   37.4140   62.8510 C.cat  78  ARG78       0.5346
     29  NH1       35.5840   38.1460   63.9500 N.pl3  78  ARG78       0.1354
     30  NH2       34.2960   36.7930   62.6020 N.pl3  78  ARG78       0.1354
     31  N         41.3920   32.9390   62.7590 N.am   79  LEU79      -0.1980
     32  CA        41.6840   31.6020   62.3150 C.3    79  LEU79       0.1596
     33  C         40.7210   30.5970   62.8610 C.2    79  LEU79       0.2287
     34  O         39.9420   29.9740   62.1300 O.2    79  LEU79      -0.2864
     35  CB        43.1150   31.2130   62.7020 C.3    79  LEU79       0.0297
     36  CG        44.1990   32.1560   62.1940 C.3    79  LEU79       0.0022
     37  CD1       45.5740   31.6420   62.7280 C.3    79  LEU79       0.0001
     38  CD2       44.2320   32.3170   60.7310 C.3    79  LEU79       0.0001
     39  N         39.4700   23.6670   55.1690 N.3   125  ASN125     -0.1240
     40  CA        39.5040   23.8220   56.6350 C.3   125  ASN125      0.1653
     41  C         38.2760   23.2290   57.3080 C.2   125  ASN125      0.2266
     42  O         37.2790   22.9810   56.6610 O.2   125  ASN125     -0.2867
     43  CB        39.5700   25.3120   56.9920 C.3   125  ASN125      0.1155
     44  CG        40.8430   25.9420   56.5080 C.2   125  ASN125      0.2627
     45  OD1       41.9130   25.6400   57.0660 O.2   125  ASN125     -0.2716
     46  ND2       40.7570   26.8090   55.4770 N.am  125  ASN125     -0.0877
     47  N         35.7540   24.2820   58.6280 N.3   127  THR127     -0.1218
     48  CA        34.9160   25.4690   58.6700 C.3   127  THR127      0.1862
     49  C         33.7000   25.2210   57.7950 C.2   127  THR127      0.2287
     50  O         33.6740   24.3480   56.9210 O.2   127  THR127     -0.2866
     51  CB        35.6140   26.6850   58.0810 C.3   127  THR127      0.1770
     52  OG1       35.9090   26.4380   56.7020 O.3   127  THR127     -0.2211
     53  CG2       36.9040   27.0870   58.7950 C.3   127  THR127      0.0375
     54  N         32.4560   26.9720   55.2530 N.3   129  PRO129     -0.2102
     55  CA        32.8370   27.0450   53.8280 C.3   129  PRO129      0.1504
     56  C         33.6870   25.8650   53.3160 C.2   129  PRO129      0.2576
     57  O         33.4690   25.3890   52.1830 O.2   129  PRO129     -0.2718
     58  CB        33.5880   28.3920   53.7450 C.3   129  PRO129      0.0282
     59  CG        32.9370   29.2030   54.9170 C.3   129  PRO129      0.0208
     60  CD        32.8270   28.1700   56.0020 C.3   129  PRO129      0.0893
     61  N         34.6130   25.3880   54.1450 N.am  130  GLY130     -0.1957
     62  CA        35.4350   24.2300   53.7870 C.3   130  GLY130      0.1869
     63  C         34.5840   22.9970   53.5930 C.2   130  GLY130      0.2309
     64  O         34.8660   22.1740   52.7340 O.2   130  GLY130     -0.2863
     65  N         32.9590   26.1330   49.1720 N.3   134  ASN134     -0.1240
     66  CA        34.2780   26.4640   48.6140 C.3   134  ASN134      0.1653
     67  C         34.6390   25.3510   47.6490 C.2   134  ASN134      0.2266
     68  O         34.2650   24.1970   47.8800 O.2   134  ASN134     -0.2867
     69  CB        35.3330   26.3910   49.6760 C.3   134  ASN134      0.1155
     70  CG        35.4520   27.6300   50.5040 C.2   134  ASN134      0.2627
     71  OD1       34.7180   28.6240   50.3490 O.2   134  ASN134     -0.2716
     72  ND2       36.4020   27.5700   51.4370 N.am  134  ASN134     -0.0877
     73  N         36.9270   22.7700   46.8950 N.3   136  GLU136     -0.1245
     74  CA        37.9530   22.1090   47.6910 C.3   136  GLU136      0.1567
     75  C         38.2950   20.7230   47.0980 C.2   136  GLU136      0.2260
     76  O         37.4180   19.9820   46.6270 O.2   136  GLU136     -0.2867
     77  CB        37.5060   21.9300   49.1350 C.3   136  GLU136      0.0388
     78  CG        36.9840   23.1840   49.8480 C.3   136  GLU136      0.1160
     79  CD        38.0460   24.1070   50.3850 C.2   136  GLU136      0.3649
     80  OE1       39.2570   23.9040   50.0180 O.co2 136  GLU136     -0.2457
     81  OE2       37.6810   25.0710   51.1660 O.co2 136  GLU136     -0.2457
     82  N         39.0530   33.7500   67.8630 N.3   184  TYR184     -0.1241
     83  CA        38.1630   34.8650   67.6110 C.3   184  TYR184      0.1605
     84  C         36.7370   34.5160   67.9820 C.2   184  TYR184      0.2264
     85  O         36.3770   33.3400   68.1410 O.2   184  TYR184     -0.2867
     86  CB        38.2260   35.2980   66.1570 C.3   184  TYR184      0.0534
     87  CG        37.5740   34.3750   65.1460 C.ar  184  TYR184     -0.0201
     88  CD1       36.2680   34.5950   64.7030 C.ar  184  TYR184     -0.0009
     89  CD2       38.2730   33.3170   64.6010 C.ar  184  TYR184     -0.0009
     90  CE1       35.6710   33.7710   63.7840 C.ar  184  TYR184      0.0417
     91  CE2       37.7220   32.5150   63.7130 C.ar  184  TYR184      0.0417
     92  CZ        36.3930   32.7330   63.2700 C.ar  184  TYR184      0.1957
     93  OH        35.8390   31.8690   62.3200 O.3   184  TYR184     -0.2866
@<TRIPOS>BOND
     1    76    75    2
     2    73    74    1
     3    75    74    1
     4    67    68    2
     5    67    66    1
     6    74    77    1
     7    66    65    1
     8    66    69    1
     9    77    78    1
    10    69    70    1
    11    78    79    1
    12    80    79   ar
    13    71    70    2
    14    79    81   ar
    15    70    72   am
    16    57    56    2
    17    64    63    2
    18    56    55    1
    19    56    61   am
    20    63    62    1
    21    58    55    1
    22    58    59    1
    23    62    61    1
    24    55    54    1
    25    59    60    1
    26    39    40    1
    27    54    60    1
    28    46    44   am
    29    44    43    1
    30    44    45    2
    31    40    43    1
    32    40    41    1
    33    42    41    2
    34    52    51    1
    35    50    49    2
    36     9    11   ar
    37     9     7   ar
    38    11    10   ar
    39     7     6   ar
    40    49    48    1
    41    10     8   ar
    42    51    48    1
    43    51    53    1
    44     6     8   ar
    45     6     5    1
    46    47    48    1
    47     5     2    1
    48     1     2    1
    49    19    17   am
    50     2     3    1
    51     4     3    2
    52    18    17    2
    53    38    36    1
    54    23    22    2
    55    17    16    1
    56    27    26    1
    57    27    28    2
    58    22    21    1
    59    22    31   am
    60    24    21    1
    61    24    25    1
    62    26    25    1
    63    34    33    2
    64    36    35    1
    65    36    37    1
    66    16    13    1
    67    20    21    1
    68    32    35    1
    69    32    31    1
    70    32    33    1
    71    93    92    1
    72    12    13    1
    73    30    28    1
    74    28    29    1
    75    13    14    1
    76    15    14    2
    77    92    91   ar
    78    92    90   ar
    79    91    89   ar
    80    90    88   ar
    81    89    87   ar
    82    88    87   ar
    83    87    86    1
    84    86    83    1
    85    83    82    1
    86    83    84    1
    87    84    85    2
