@<TRIPOS>MOLECULE
tmp/2c1pC00.pdb
 118 115 0 0 0
SMALL
GASTEIGER

@<TRIPOS>ATOM
      1  N         47.8390   89.8790   34.4150 N.3    32  TRP32      -0.1241
      2  CA        48.8880   90.7320   33.8790 C.3    32  TRP32       0.1605
      3  C         48.6550   90.9040   32.3920 C.2    32  TRP32       0.2264
      4  O         48.2920   89.9450   31.7050 O.2    32  TRP32      -0.2867
      5  CB        50.2680   90.0960   34.0620 C.3    32  TRP32       0.0550
      6  CG        50.8050   90.0930   35.4480 C.ar   32  TRP32       0.0003
      7  CD1       50.6450   89.1200   36.3910 C.ar   32  TRP32       0.0946
      8  CD2       51.6500   91.0900   36.0380 C.ar   32  TRP32       0.0152
      9  NE1       51.3410   89.4470   37.5280 N.ar   32  TRP32      -0.2442
     10  CE2       51.9680   90.6510   37.3370 C.ar   32  TRP32       0.0810
     11  CE3       52.1690   92.3100   35.5900 C.ar   32  TRP32       0.0012
     12  CZ2       52.7870   91.3870   38.1990 C.ar   32  TRP32       0.0191
     13  CZ3       52.9860   93.0450   36.4490 C.ar   32  TRP32       0.0001
     14  CH2       53.2850   92.5770   37.7380 C.ar   32  TRP32       0.0015
     15  N         50.4350   91.6840   28.9260 N.3    34  ASN34      -0.1240
     16  CA        51.7370   91.6930   28.2840 C.3    34  ASN34       0.1653
     17  C         51.7530   92.5460   27.0170 C.2    34  ASN34       0.2266
     18  O         50.7260   92.7380   26.3720 O.2    34  ASN34      -0.2867
     19  CB        52.1290   90.2550   27.9130 C.3    34  ASN34       0.1155
     20  CG        52.4010   89.3920   29.1270 C.2    34  ASN34       0.2627
     21  OD1       53.4830   89.4560   29.7170 O.2    34  ASN34      -0.2716
     22  ND2       51.4170   88.5850   29.5150 N.am   34  ASN34      -0.0877
     23  N         54.0490   92.9200   23.4170 N.3    36  LEU36      -0.1245
     24  CA        55.0690   92.3070   22.5650 C.3    36  LEU36       0.1561
     25  C         55.2750   93.1160   21.2840 C.2    36  LEU36       0.2260
     26  O         54.3840   93.8460   20.8400 O.2    36  LEU36      -0.2867
     27  CB        54.6640   90.8860   22.1540 C.3    36  LEU36       0.0270
     28  CG        54.4920   89.7360   23.1470 C.3    36  LEU36       0.0019
     29  CD1       55.8170   89.4080   23.7900 C.3    36  LEU36       0.0001
     30  CD2       53.4540   90.0950   24.1810 C.3    36  LEU36       0.0001
     31  N         59.5870   87.5310   17.7530 N.3    44  LEU44      -0.1245
     32  CA        58.8850   88.2600   18.8010 C.3    44  LEU44       0.1561
     33  C         59.7870   88.7100   19.9450 C.2    44  LEU44       0.2260
     34  O         60.6660   87.9730   20.3860 O.2    44  LEU44      -0.2867
     35  CB        57.7530   87.3890   19.3550 C.3    44  LEU44       0.0270
     36  CG        56.6540   86.9920   18.3630 C.3    44  LEU44       0.0019
     37  CD1       55.8990   85.7760   18.8840 C.3    44  LEU44       0.0001
     38  CD2       55.7170   88.1700   18.1370 C.3    44  LEU44       0.0001
     39  N         59.6310   90.3760   23.8550 N.3    46  TRP46      -0.1241
     40  CA        58.7340   90.6360   24.9680 C.3    46  TRP46       0.1605
     41  C         59.1450   92.0140   25.4920 C.2    46  TRP46       0.2264
     42  O         60.3040   92.2210   25.8770 O.2    46  TRP46      -0.2867
     43  CB        58.9060   89.5850   26.0640 C.3    46  TRP46       0.0550
     44  CG        57.9820   89.7860   27.2350 C.ar   46  TRP46       0.0003
     45  CD1       56.6530   89.4700   27.3000 C.ar   46  TRP46       0.0946
     46  CD2       58.3240   90.3440   28.5060 C.ar   46  TRP46       0.0152
     47  NE1       56.1480   89.7910   28.5350 N.ar   46  TRP46      -0.2442
     48  CE2       57.1530   90.3310   29.2960 C.ar   46  TRP46       0.0810
     49  CE3       59.5090   90.8540   29.0560 C.ar   46  TRP46       0.0012
     50  CZ2       57.1310   90.8080   30.6090 C.ar   46  TRP46       0.0191
     51  CZ3       59.4900   91.3280   30.3600 C.ar   46  TRP46       0.0001
     52  CH2       58.3060   91.3010   31.1230 C.ar   46  TRP46       0.0015
     53  N         55.2320   93.8510   30.9680 N.3    49  MET49      -0.1245
     54  CA        53.8620   93.6190   31.3750 C.3    49  MET49       0.1570
     55  C         53.4910   94.5470   32.5130 C.2    49  MET49       0.2261
     56  O         54.3570   95.1090   33.1780 O.2    49  MET49      -0.2867
     57  CB        53.6830   92.1630   31.8130 C.3    49  MET49       0.0387
     58  CG        54.4840   91.7840   33.0470 C.3    49  MET49       0.0595
     59  SD        54.2570   90.0400   33.4870 S.3    49  MET49      -0.1393
     60  CE        54.9470   90.0080   35.1490 C.3    49  MET49       0.0692
     61  N         56.6120   95.3940   35.0770 N.3    58  ARG58      -0.1245
     62  CA        57.8870   94.6890   34.9920 C.3    58  ARG58       0.1563
     63  C         58.2950   94.7380   33.5170 C.2    58  ARG58       0.2260
     64  O         57.6190   94.1670   32.6540 O.2    58  ARG58      -0.2867
     65  CB        57.7110   93.2380   35.4580 C.3    58  ARG58       0.0307
     66  CG        57.0960   93.1010   36.8510 C.3    58  ARG58       0.0489
     67  CD        58.1170   93.3440   37.9490 C.3    58  ARG58       0.2205
     68  NE        57.5470   93.2090   39.2910 N.pl3  58  ARG58      -0.0865
     69  CZ        56.7820   94.1250   39.8760 C.cat  58  ARG58       0.5346
     70  NH1       56.4920   95.2530   39.2380 N.pl3  58  ARG58       0.1354
     71  NH2       56.3060   93.9150   41.0980 N.pl3  58  ARG58       0.1354
     72  N         48.7300   91.1200   25.1140 N.3    96  ALA96      -0.1245
     73  CA        48.1720   89.7910   25.2620 C.3    96  ALA96       0.1562
     74  C         48.2730   89.2350   26.6620 C.2    96  ALA96       0.2260
     75  O         49.0900   89.6730   27.4760 O.2    96  ALA96      -0.2867
     76  CB        48.8600   88.8390   24.2900 C.3    96  ALA96       0.0290
     77  N         48.8650   85.7910   28.9200 N.3    98  ASP98      -0.1225
     78  CA        49.5800   84.5330   28.7950 C.3    98  ASP98       0.1805
     79  C         49.7360   83.9950   30.2010 C.2    98  ASP98       0.2598
     80  O         50.7770   84.1730   30.8360 O.2    98  ASP98      -0.2718
     81  CB        50.9610   84.7500   28.1720 C.3    98  ASP98       0.1424
     82  CG        51.6360   83.4400   27.7850 C.2    98  ASP98       0.3668
     83  OD1       51.1260   82.7560   26.8770 O.co2  98  ASP98      -0.2456
     84  OD2       52.6700   83.0940   28.3890 O.co2  98  ASP98      -0.2456
     85  N         48.6830   83.3510   30.6880 N.am   99  ASP99      -0.1960
     86  CA        48.6930   82.8050   32.0320 C.3    99  ASP99       0.1840
     87  C         47.8960   81.5150   32.1350 C.2    99  ASP99       0.2622
     88  O         47.3850   80.9990   31.1450 O.2    99  ASP99      -0.2715
     89  CB        48.1390   83.8380   33.0210 C.3    99  ASP99       0.1450
     90  CG        46.7910   84.4040   32.5930 C.2    99  ASP99       0.3671
     91  OD1       46.7290   85.6070   32.2510 O.co2  99  ASP99      -0.2456
     92  OD2       45.7910   83.6530   32.5980 O.co2  99  ASP99      -0.2456
     93  N         47.7980   81.0060   33.3560 N.am  100  TYR100     -0.1974
     94  CA        47.0680   79.7760   33.6340 C.3   100  TYR100      0.1639
     95  C         45.6260   79.8190   33.1140 C.2   100  TYR100      0.2290
     96  O         45.1590   78.8710   32.4790 O.2   100  TYR100     -0.2864
     97  CB        47.0970   79.5060   35.1470 C.3   100  TYR100      0.0560
     98  CG        46.8690   80.7440   36.0020 C.ar  100  TYR100     -0.0198
     99  CD1       45.5810   81.2360   36.2310 C.ar  100  TYR100     -0.0009
    100  CD2       47.9460   81.4390   36.5600 C.ar  100  TYR100     -0.0009
    101  CE1       45.3740   82.3900   36.9930 C.ar  100  TYR100      0.0417
    102  CE2       47.7490   82.5930   37.3210 C.ar  100  TYR100      0.0417
    103  CZ        46.4610   83.0630   37.5340 C.ar  100  TYR100      0.1957
    104  OH        46.2580   84.2060   38.2800 O.3   100  TYR100     -0.2866
    105  N         45.6040   87.0190   22.4670 N.3   105  TRP105     -0.1241
    106  CA        46.3560   88.0860   21.8310 C.3   105  TRP105      0.1605
    107  C         45.4240   89.0390   21.0850 C.2   105  TRP105      0.2264
    108  O         44.3800   88.6370   20.5650 O.2   105  TRP105     -0.2867
    109  CB        47.3650   87.5060   20.8370 C.3   105  TRP105      0.0550
    110  CG        48.5740   86.8610   21.4670 C.ar  105  TRP105      0.0003
    111  CD1       48.5850   85.8600   22.4060 C.ar  105  TRP105      0.0946
    112  CD2       49.9480   87.1650   21.1900 C.ar  105  TRP105      0.0152
    113  NE1       49.8800   85.5280   22.7270 N.ar  105  TRP105     -0.2442
    114  CE2       50.7370   86.3100   21.9970 C.ar  105  TRP105      0.0810
    115  CE3       50.5910   88.0760   20.3380 C.ar  105  TRP105      0.0012
    116  CZ2       52.1410   86.3390   21.9760 C.ar  105  TRP105      0.0191
    117  CZ3       51.9900   88.1060   20.3160 C.ar  105  TRP105      0.0001
    118  CH2       52.7460   87.2430   21.1300 C.ar  105  TRP105      0.0015
@<TRIPOS>BOND
     1    31    32    1
     2    38    36    1
     3    36    37    1
     4    36    35    1
     5    32    35    1
     6    32    33    1
     7    33    34    2
     8   117   115   ar
     9   117   118   ar
    10   115   112   ar
    11   108   107    2
    12   109   110    1
    13   109   106    1
    14    26    25    2
    15   107   106    1
    16   118   116   ar
    17   112   110   ar
    18   112   114   ar
    19    25    24    1
    20   110   111   ar
    21   106   105    1
    22   116   114   ar
    23   114   113   ar
    24    27    24    1
    25    27    28    1
    26   111   113   ar
    27    24    23    1
    28    28    29    1
    29    28    30    1
    30    39    40    1
    31    76    73    1
    32    40    41    1
    33    40    43    1
    34    72    73    1
    35    73    74    1
    36    41    42    2
    37    43    44    1
    38    18    17    2
    39    74    75    2
    40    83    82   ar
    41    17    16    1
    42    44    45   ar
    43    44    46   ar
    44    45    47   ar
    45    82    81    1
    46    82    84   ar
    47    19    16    1
    48    19    20    1
    49    81    78    1
    50    16    15    1
    51    46    49   ar
    52    46    48   ar
    53    47    48   ar
    54    78    77    1
    55    78    79    1
    56    49    51   ar
    57    20    22   am
    58    20    21    2
    59    48    50   ar
    60    79    85   am
    61    79    80    2
    62    51    52   ar
    63    50    52   ar
    64    85    86    1
    65    53    54    1
    66    88    87    2
    67    54    57    1
    68    54    55    1
    69     4     3    2
    70    57    58    1
    71    86    87    1
    72    86    89    1
    73    87    93   am
    74    91    90   ar
    75     3     2    1
    76    96    95    2
    77    55    56    2
    78    90    92   ar
    79    90    89    1
    80    64    63    2
    81    58    59    1
    82    95    94    1
    83    93    94    1
    84    59    60    1
    85    63    62    1
    86    94    97    1
    87     2     5    1
    88     2     1    1
    89     5     6    1
    90    62    61    1
    91    62    65    1
    92    97    98    1
    93     6     8   ar
    94     6     7   ar
    95    65    66    1
    96    11     8   ar
    97    11    13   ar
    98    98    99   ar
    99    98   100   ar
   100     8    10   ar
   101    99   101   ar
   102     7     9   ar
   103    13    14   ar
   104   100   102   ar
   105    66    67    1
   106   101   103   ar
   107   102   103   ar
   108    10     9   ar
   109    10    12   ar
   110   103   104    1
   111    14    12   ar
   112    67    68    1
   113    70    69    1
   114    68    69    2
   115    69    71    1
