@<TRIPOS>MOLECULE
tmp/2c1pA00.pdb
 92 90 0 0 0
SMALL
GASTEIGER

@<TRIPOS>ATOM
      1  N         56.2100   33.2040   61.6480 N.3    39  ASN39      -0.1240
      2  CA        54.9880   33.0660   60.8650 C.3    39  ASN39       0.1653
      3  C         55.2880   33.0090   59.3760 C.2    39  ASN39       0.2266
      4  O         56.3850   33.3600   58.9410 O.2    39  ASN39      -0.2867
      5  CB        54.0490   34.2430   61.1250 C.3    39  ASN39       0.1155
      6  CG        53.7710   34.4490   62.5870 C.2    39  ASN39       0.2627
      7  OD1       53.9310   33.5380   63.3910 O.2    39  ASN39      -0.2716
      8  ND2       53.3380   35.6490   62.9420 N.am   39  ASN39      -0.0877
      9  N         53.5250   34.0330   55.5450 N.3    41  LEU41      -0.1245
     10  CA        52.4790   34.7610   54.8450 C.3    41  LEU41       0.1561
     11  C         52.5410   34.4530   53.3560 C.2    41  LEU41       0.2260
     12  O         53.5930   34.1080   52.8170 O.2    41  LEU41      -0.2867
     13  CB        52.6370   36.2730   55.0480 C.3    41  LEU41       0.0270
     14  CG        52.6330   36.8120   56.4820 C.3    41  LEU41       0.0019
     15  CD1       53.9220   36.4240   57.1720 C.3    41  LEU41       0.0001
     16  CD2       52.4820   38.3170   56.4620 C.3    41  LEU41       0.0001
     17  N         48.8000   36.1060   56.4570 N.3    51  ARG51      -0.1245
     18  CA        49.3920   35.0670   57.2870 C.3    51  ARG51       0.1563
     19  C         48.6540   33.7410   57.0900 C.2    51  ARG51       0.2260
     20  O         47.4270   33.7150   57.0370 O.2    51  ARG51      -0.2867
     21  CB        49.3190   35.4720   58.7580 C.3    51  ARG51       0.0307
     22  CG        50.1800   34.6270   59.6840 C.3    51  ARG51       0.0489
     23  CD        50.0720   35.0950   61.1360 C.3    51  ARG51       0.2205
     24  NE        48.8740   34.5750   61.7900 N.pl3  51  ARG51      -0.0865
     25  CZ        48.4580   34.9340   63.0010 C.cat  51  ARG51       0.5346
     26  NH1       49.1360   35.8270   63.7130 N.pl3  51  ARG51       0.1354
     27  NH2       47.3600   34.3930   63.5000 N.pl3  51  ARG51       0.1354
     28  N         58.5290   35.3970   58.7410 N.3    94  VAL94      -0.1231
     29  CA        58.8170   36.5760   59.5320 C.3    94  VAL94       0.1692
     30  C         59.0260   36.1690   60.9830 C.2    94  VAL94       0.2592
     31  O         58.2890   35.3410   61.5190 O.2    94  VAL94      -0.2718
     32  CB        57.6520   37.6110   59.4150 C.3    94  VAL94       0.0266
     33  CG1       56.3120   36.9510   59.7580 C.3    94  VAL94       0.0020
     34  CG2       57.9070   38.7930   60.3280 C.3    94  VAL94       0.0020
     35  N         60.0450   36.7380   61.6110 N.am   95  GLN95      -0.1966
     36  CA        60.3150   36.4120   62.9980 C.3    95  GLN95       0.1733
     37  C         59.8950   37.5630   63.9060 C.2    95  GLN95       0.2617
     38  O         60.0500   38.7380   63.5590 O.2    95  GLN95      -0.2715
     39  CB        61.7990   36.0590   63.1850 C.3    95  GLN95       0.0408
     40  CG        62.7830   37.2060   63.0640 C.3    95  GLN95       0.0908
     41  CD        62.7980   38.0880   64.2900 C.2    95  GLN95       0.2608
     42  OE1       62.5730   37.6210   65.4110 O.2    95  GLN95      -0.2717
     43  NE2       63.0800   39.3680   64.0930 N.am   95  GLN95      -0.0878
     44  N         59.3380   37.2120   65.0610 N.am   96  GLY96      -0.1940
     45  CA        58.8940   38.2190   66.0080 C.3    96  GLY96       0.2014
     46  C         59.4690   38.0300   67.4010 C.2    96  GLY96       0.2640
     47  O         58.9040   38.5140   68.3780 O.2    96  GLY96      -0.2714
     48  N         60.5890   37.3180   67.4830 N.am   97  SER97      -0.1935
     49  CA        61.2690   37.0550   68.7470 C.3    97  SER97       0.2055
     50  C         62.2930   38.1390   69.0610 C.2    97  SER97       0.2643
     51  O         62.5410   38.4570   70.2290 O.2    97  SER97      -0.2714
     52  CB        61.9730   35.7010   68.6910 C.3    97  SER97       0.2130
     53  OG        61.0200   34.6580   68.6420 O.3    97  SER97      -0.2179
     54  N         62.8890   38.6950   68.0120 N.am   98  HIS98      -0.1959
     55  CA        63.8870   39.7490   68.1500 C.3    98  HIS98       0.1787
     56  C         63.3490   41.0480   67.5840 C.2    98  HIS98       0.2620
     57  O         62.7830   41.0740   66.4950 O.2    98  HIS98      -0.2715
     58  CB        65.1570   39.3860   67.3840 C.3    98  HIS98       0.0785
     59  CG        65.7840   38.1050   67.8270 C.ar   98  HIS98       0.0821
     60  ND1       66.9080   38.0630   68.6200 N.ar   98  HIS98      -0.2267
     61  CD2       65.4330   36.8160   67.5990 C.ar   98  HIS98       0.1154
     62  CE1       67.2240   36.8030   68.8650 C.ar   98  HIS98       0.1986
     63  NE2       66.3450   36.0260   68.2560 N.ar   98  HIS98      -0.2212
     64  N         63.5360   42.1300   68.3210 N.am   99  PHE99      -0.1974
     65  CA        63.0890   43.4290   67.8550 C.3    99  PHE99       0.1639
     66  C         64.2070   44.0130   67.0020 C.2    99  PHE99       0.2290
     67  O         65.3750   43.9660   67.3840 O.2    99  PHE99      -0.2864
     68  CB        62.8010   44.3430   69.0440 C.3    99  PHE99       0.0560
     69  CG        62.1420   45.6300   68.6660 C.ar   99  PHE99      -0.0200
     70  CD1       62.8740   46.6570   68.0750 C.ar   99  PHE99      -0.0042
     71  CD2       60.7740   45.8050   68.8660 C.ar   99  PHE99      -0.0042
     72  CE1       62.2510   47.8440   67.6820 C.ar   99  PHE99      -0.0003
     73  CE2       60.1430   46.9880   68.4780 C.ar   99  PHE99      -0.0003
     74  CZ        60.8850   48.0060   67.8850 C.ar   99  PHE99      -0.0000
     75  N         60.9420   43.0040   64.2900 N.3   101  PRO101     -0.2116
     76  CA        60.6210   41.8370   63.4690 C.3   101  PRO101      0.1372
     77  C         61.1610   42.0550   62.0620 C.2   101  PRO101      0.2244
     78  O         61.1540   43.1710   61.5500 O.2   101  PRO101     -0.2868
     79  CB        59.0960   41.7820   63.5140 C.3   101  PRO101      0.0268
     80  CG        58.7000   43.1860   63.8370 C.3   101  PRO101      0.0207
     81  CD        59.7230   43.5940   64.8610 C.3   101  PRO101      0.0892
     82  N         61.4460   40.1740   57.9770 N.3   103  PHE103     -0.1241
     83  CA        60.8940   39.1900   57.0390 C.3   103  PHE103      0.1605
     84  C         61.9850   38.5800   56.1820 C.2   103  PHE103      0.2264
     85  O         63.0430   39.1790   55.9970 O.2   103  PHE103     -0.2867
     86  CB        59.8980   39.8430   56.0710 C.3   103  PHE103      0.0534
     87  CG        58.6650   40.3970   56.7220 C.ar  103  PHE103     -0.0203
     88  CD1       58.7140   41.5740   57.4570 C.ar  103  PHE103     -0.0042
     89  CD2       57.4450   39.7480   56.5790 C.ar  103  PHE103     -0.0042
     90  CE1       57.5600   42.1000   58.0420 C.ar  103  PHE103     -0.0003
     91  CE2       56.2900   40.2640   57.1610 C.ar  103  PHE103     -0.0003
     92  CZ        56.3500   41.4440   57.8940 C.ar  103  PHE103     -0.0000
@<TRIPOS>BOND
     1    12    11    2
     2    11    10    1
     3    10    13    1
     4    10     9    1
     5    13    14    1
     6    85    84    2
     7    86    87    1
     8    86    83    1
     9    84    83    1
    10    17    18    1
    11    16    14    1
    12    14    15    1
    13    89    87   ar
    14    89    91   ar
    15    87    88   ar
    16    20    19    2
    17    83    82    1
    18    19    18    1
    19    91    92   ar
    20    18    21    1
    21    88    90   ar
    22    92    90   ar
    23    28    29    1
    24    21    22    1
    25     4     3    2
    26     3     2    1
    27    32    29    1
    28    32    33    1
    29    32    34    1
    30    29    30    1
    31    22    23    1
    32     2     5    1
    33     2     1    1
    34    30    31    2
    35    30    35   am
    36     5     6    1
    37    23    24    1
    38    78    77    2
    39    35    36    1
    40    24    25    2
    41    77    76    1
    42     6     8   am
    43     6     7    2
    44    36    39    1
    45    36    37    1
    46    25    27    1
    47    25    26    1
    48    40    39    1
    49    40    41    1
    50    76    79    1
    51    76    75    1
    52    79    80    1
    53    38    37    2
    54    80    81    1
    55    37    44   am
    56    43    41   am
    57    75    81    1
    58    41    42    2
    59    44    45    1
    60    45    46    1
    61    57    56    2
    62    66    67    2
    63    66    65    1
    64    58    59    1
    65    58    55    1
    66    46    48   am
    67    46    47    2
    68    48    49    1
    69    56    55    1
    70    56    64   am
    71    61    59   ar
    72    61    63   ar
    73    72    74   ar
    74    72    70   ar
    75    59    60   ar
    76    65    64    1
    77    65    68    1
    78    74    73   ar
    79    54    55    1
    80    54    50   am
    81    70    69   ar
    82    63    62   ar
    83    73    71   ar
    84    60    62   ar
    85    53    52    1
    86    69    71   ar
    87    69    68    1
    88    52    49    1
    89    49    50    1
    90    50    51    2
