@<TRIPOS>MOLECULE
tmp/2c1sA00.pdb
 171 162 0 0 0
SMALL
GASTEIGER

@<TRIPOS>ATOM
      1  N         46.3950   16.1380   16.7520 N.3    11  ASN11      -0.1240
      2  CA        46.5550   15.5820   15.4170 C.3    11  ASN11       0.1653
      3  C         46.3380   16.6520   14.3670 C.2    11  ASN11       0.2266
      4  O         46.0500   17.8240   14.6990 O.2    11  ASN11      -0.2867
      5  CB        45.6620   14.3330   15.1960 C.3    11  ASN11       0.1155
      6  CG        44.1720   14.6270   15.1160 C.2    11  ASN11       0.2627
      7  OD1       43.7390   15.7400   14.8230 O.2    11  ASN11      -0.2716
      8  ND2       43.3530   13.5710   15.3620 N.am   11  ASN11      -0.0877
      9  N         43.9850   17.2810   12.3220 N.3    13  LEU13      -0.1245
     10  CA        42.6430   17.8200   12.1760 C.3    13  LEU13       0.1561
     11  C         42.3720   18.8960   13.2300 C.2    13  LEU13       0.2260
     12  O         41.3450   19.5710   13.1890 O.2    13  LEU13      -0.2867
     13  CB        41.5900   16.7130   12.3270 C.3    13  LEU13       0.0270
     14  CG        41.6320   15.5730   11.3170 C.3    13  LEU13       0.0019
     15  CD1       40.4460   14.5970   11.5470 C.3    13  LEU13       0.0001
     16  CD2       41.6290   16.1120    9.9030 C.3    13  LEU13       0.0001
     17  N         42.3330   17.9830   16.4810 N.3    15  SER15      -0.1217
     18  CA        41.8680   17.2690   17.6560 C.3    15  SER15       0.1889
     19  C         42.9490   17.1530   18.7370 C.2    15  SER15       0.2288
     20  O         44.1350   16.9610   18.4440 O.2    15  SER15      -0.2866
     21  CB        41.3690   15.8620   17.2680 C.3    15  SER15       0.2089
     22  OG        40.3340   16.0020   16.3310 O.3    15  SER15      -0.2183
     23  N         39.2850   12.8160   24.8780 N.3    32  TYR32      -0.1241
     24  CA        39.4680   13.1040   23.4530 C.3    32  TYR32       0.1605
     25  C         38.5510   14.2280   23.0660 C.2    32  TYR32       0.2264
     26  O         37.3160   14.1290   23.2300 O.2    32  TYR32      -0.2867
     27  CB        39.1420   11.8420   22.6000 C.3    32  TYR32       0.0534
     28  CG        39.7630   11.8840   21.2150 C.ar   32  TYR32      -0.0201
     29  CD1       40.9290   11.1690   20.9560 C.ar   32  TYR32      -0.0009
     30  CD2       39.2160   12.6730   20.1930 C.ar   32  TYR32      -0.0009
     31  CE1       41.5460   11.2220   19.7040 C.ar   32  TYR32       0.0417
     32  CE2       39.8190   12.7380   18.8880 C.ar   32  TYR32       0.0417
     33  CZ        40.9980   11.9910   18.6730 C.ar   32  TYR32       0.1957
     34  OH        41.6560   11.9920   17.4440 O.3    32  TYR32      -0.2866
     35  N         37.6180   16.0510   19.8730 N.3    34  THR34      -0.1218
     36  CA        37.7160   16.0710   18.4180 C.3    34  THR34       0.1862
     37  C         37.3990   17.4530   17.8620 C.2    34  THR34       0.2287
     38  O         36.5180   18.1520   18.3850 O.2    34  THR34      -0.2866
     39  CB        36.8260   14.9340   17.7680 C.3    34  THR34       0.1770
     40  OG1       36.9490   15.0090   16.3520 O.3    34  THR34      -0.2211
     41  CG2       35.3500   15.0730   18.1300 C.3    34  THR34       0.0375
     42  N         36.4070   17.8680   14.7530 N.3    36  VAL36      -0.1231
     43  CA        35.4630   17.5990   13.6750 C.3    36  VAL36       0.1692
     44  C         34.4450   16.5150   14.0820 C.2    36  VAL36       0.2593
     45  O         34.6930   15.6960   14.9640 O.2    36  VAL36      -0.2718
     46  CB        36.2090   17.1780   12.3670 C.3    36  VAL36       0.0266
     47  CG1       37.1580   18.2820   11.9060 C.3    36  VAL36       0.0020
     48  CG2       37.0120   15.9340   12.6050 C.3    36  VAL36       0.0020
     49  N         33.2780   16.5470   13.4630 N.am   37  THR37      -0.1939
     50  CA        32.2740   15.5220   13.6740 C.3    37  THR37       0.2028
     51  C         31.4720   15.3420   12.3970 C.2    37  THR37       0.2642
     52  O         31.2540   16.3070   11.6400 O.2    37  THR37      -0.2714
     53  CB        31.3430   15.8640   14.8750 C.3    37  THR37       0.1808
     54  OG1       30.3340   14.8600   15.0250 O.3    37  THR37      -0.2208
     55  CG2       30.6690   17.2000   14.6600 C.3    37  THR37       0.0379
     56  N         31.0290   14.1110   12.1650 N.am   38  ALA38      -0.1963
     57  CA        30.1020   13.8010   11.0690 C.3    38  ALA38       0.1728
     58  C         28.6450   14.1260   11.4270 C.2    38  ALA38       0.2616
     59  O         27.7510   14.0220   10.5800 O.2    38  ALA38      -0.2715
     60  CB        30.2320   12.3510   10.6520 C.3    38  ALA38       0.0334
     61  N         28.4100   14.4820   12.6860 N.am   39  THR39      -0.1951
     62  CA        27.0890   14.8740   13.1940 C.3    39  THR39       0.1897
     63  C         26.9050   16.3760   13.0790 C.2    39  THR39       0.2313
     64  O         27.8370   17.0930   12.7120 O.2    39  THR39      -0.2863
     65  CB        26.8880   14.4870   14.6820 C.3    39  THR39       0.1794
     66  OG1       27.7350   15.2720   15.5490 O.3    39  THR39      -0.2208
     67  CG2       27.1550   13.0290   14.9050 C.3    39  THR39       0.0378
     68  N         32.0940    8.6130   22.3150 N.3    70  TRP70      -0.1241
     69  CA        31.6930    9.9940   22.0450 C.3    70  TRP70       0.1605
     70  C         30.5000   10.3480   22.8900 C.2    70  TRP70       0.2264
     71  O         29.5360    9.5910   22.9440 O.2    70  TRP70      -0.2867
     72  CB        31.3540   10.1920   20.5660 C.3    70  TRP70       0.0550
     73  CG        32.5110    9.8110   19.6840 C.ar   70  TRP70       0.0003
     74  CD1       32.5790    8.7230   18.8690 C.ar   70  TRP70       0.0946
     75  CD2       33.7900   10.4890   19.5670 C.ar   70  TRP70       0.0152
     76  NE1       33.8050    8.6870   18.2270 N.ar   70  TRP70      -0.2442
     77  CE2       34.5690    9.7490   18.6400 C.ar   70  TRP70       0.0810
     78  CE3       34.3430   11.6470   20.1400 C.ar   70  TRP70       0.0012
     79  CZ2       35.8680   10.1340   18.2680 C.ar   70  TRP70       0.0191
     80  CZ3       35.6280   12.0400   19.7600 C.ar   70  TRP70       0.0001
     81  CH2       36.3820   11.2850   18.8340 C.ar   70  TRP70       0.0015
     82  N         28.5650   12.9700   22.5050 N.3    72  PHE72      -0.1227
     83  CA        27.6470   13.8130   21.7820 C.3    72  PHE72       0.1736
     84  C         27.1540   13.0890   20.5210 C.2    72  PHE72       0.2595
     85  O         26.5110   13.7010   19.6760 O.2    72  PHE72      -0.2718
     86  CB        28.3600   15.0900   21.3770 C.3    72  PHE72       0.0547
     87  CG        29.5920   14.8430   20.5500 C.ar   72  PHE72      -0.0202
     88  CD1       29.5290   14.8860   19.1550 C.ar   72  PHE72      -0.0042
     89  CD2       30.8020   14.5260   21.1670 C.ar   72  PHE72      -0.0042
     90  CE1       30.6590   14.6200   18.3930 C.ar   72  PHE72      -0.0003
     91  CE2       31.9230   14.2780   20.4120 C.ar   72  PHE72      -0.0003
     92  CZ        31.8480   14.3180   19.0240 C.ar   72  PHE72      -0.0000
     93  N         27.4970   11.8080   20.4000 N.am   73  ALA73      -0.1980
     94  CA        27.1090   10.9980   19.2380 C.3    73  ALA73       0.1597
     95  C         26.9060    9.5320   19.6080 C.2    73  ALA73       0.2287
     96  O         27.4330    9.0650   20.6210 O.2    73  ALA73      -0.2864
     97  CB        28.1480   11.1400   18.1130 C.3    73  ALA73       0.0319
     98  N         27.9270    7.0470   17.8600 N.3    75  SER75      -0.1217
     99  CA        28.9540    6.2860   17.1720 C.3    75  SER75       0.1889
    100  C         30.0840    5.9790   18.1600 C.2    75  SER75       0.2288
    101  O         30.1220    6.5280   19.2750 O.2    75  SER75      -0.2866
    102  CB        29.4800    7.1580   16.0400 C.3    75  SER75       0.2089
    103  OG        29.9920    8.3500   16.6090 O.3    75  SER75      -0.2183
    104  N         34.4810    5.2420   18.0120 N.3    77  THR77      -0.1218
    105  CA        35.7120    5.1670   17.2070 C.3    77  THR77       0.1862
    106  C         36.7370    4.3130   17.9070 C.2    77  THR77       0.2287
    107  O         36.8880    4.3910   19.1310 O.2    77  THR77      -0.2866
    108  CB        36.3290    6.5590   16.9460 C.3    77  THR77       0.1770
    109  OG1       35.4060    7.3590   16.2340 O.3    77  THR77      -0.2211
    110  CG2       37.6160    6.4810   16.1290 C.3    77  THR77       0.0375
    111  N         40.9710    3.6380   17.6050 N.3    79  PHE79      -0.1241
    112  CA        42.2600    4.0580   17.0410 C.3    79  PHE79       0.1605
    113  C         43.3040    3.0040   17.3480 C.2    79  PHE79       0.2264
    114  O         43.3550    2.4520   18.4640 O.2    79  PHE79      -0.2867
    115  CB        42.7260    5.3630   17.6980 C.3    79  PHE79       0.0534
    116  CG        41.9440    6.5750   17.3090 C.ar   79  PHE79      -0.0203
    117  CD1       42.4340    7.4410   16.3300 C.ar   79  PHE79      -0.0042
    118  CD2       40.7350    6.9060   17.9520 C.ar   79  PHE79      -0.0042
    119  CE1       41.7200    8.5920   15.9770 C.ar   79  PHE79      -0.0003
    120  CE2       40.0310    8.0420   17.5900 C.ar   79  PHE79      -0.0003
    121  CZ        40.5190    8.8990   16.6020 C.ar   79  PHE79      -0.0000
    122  N         42.1530    4.5320   12.1750 N.3    97  TRP97      -0.1241
    123  CA        40.9350    4.5200   12.9730 C.3    97  TRP97       0.1605
    124  C         39.7570    3.9790   12.1830 C.2    97  TRP97       0.2264
    125  O         39.7720    3.9930   10.9380 O.2    97  TRP97      -0.2867
    126  CB        40.6460    5.9400   13.5420 C.3    97  TRP97       0.0550
    127  CG        40.5600    7.0330   12.4910 C.ar   97  TRP97       0.0003
    128  CD1       41.5090    7.9770   12.2260 C.ar   97  TRP97       0.0946
    129  CD2       39.4470    7.3280   11.6380 C.ar   97  TRP97       0.0152
    130  NE1       41.0640    8.8260   11.2470 N.ar   97  TRP97      -0.2442
    131  CE2       39.8060    8.4520   10.8590 C.ar   97  TRP97       0.0810
    132  CE3       38.1680    6.7530   11.4610 C.ar   97  TRP97       0.0012
    133  CZ2       38.9610    9.0090    9.9050 C.ar   97  TRP97       0.0191
    134  CZ3       37.3170    7.3180   10.5000 C.ar   97  TRP97       0.0001
    135  CH2       37.7130    8.4260    9.7360 C.ar   97  TRP97       0.0015
    136  N         35.4500    4.4430   12.5110 N.3    99  LEU99      -0.1245
    137  CA        34.3330    5.1460   13.1540 C.3    99  LEU99       0.1561
    138  C         33.0810    4.3810   12.7810 C.2    99  LEU99       0.2260
    139  O         32.7460    4.2600   11.5830 O.2    99  LEU99      -0.2867
    140  CB        34.2740    6.5780   12.6860 C.3    99  LEU99       0.0270
    141  CG        33.0150    7.4220   13.0180 C.3    99  LEU99       0.0019
    142  CD1       32.8150    7.5970   14.4990 C.3    99  LEU99       0.0001
    143  CD2       33.0700    8.7880   12.3180 C.3    99  LEU99       0.0001
    144  N         29.1480    3.9990   13.0280 N.3   101  GLU101     -0.1245
    145  CA        27.7870    4.4970   13.2580 C.3   101  GLU101      0.1567
    146  C         26.8410    3.4520   13.8600 C.2   101  GLU101      0.2260
    147  O         26.8740    2.2700   13.4880 O.2   101  GLU101     -0.2867
    148  CB        27.1810    4.8730   11.9130 C.3   101  GLU101      0.0388
    149  CG        27.2450    6.3210   11.5700 C.3   101  GLU101      0.1160
    150  CD        26.4390    6.6270   10.3320 C.2   101  GLU101      0.3649
    151  OE1       25.3290    6.0540   10.1800 O.co2 101  GLU101     -0.2457
    152  OE2       26.9160    7.4390    9.5130 O.co2 101  GLU101     -0.2457
    153  N         33.4050    3.9100    8.8300 N.3   114  ARG114     -0.1245
    154  CA        34.3600    4.7380    8.1040 C.3   114  ARG114      0.1563
    155  C         35.7570    4.4190    8.6130 C.2   114  ARG114      0.2260
    156  O         35.9340    3.9660    9.7540 O.2   114  ARG114     -0.2867
    157  CB        34.0720    6.2270    8.2670 C.3   114  ARG114      0.0307
    158  CG        32.7970    6.7170    7.6150 C.3   114  ARG114      0.0489
    159  CD        32.7430    8.2460    7.8600 C.3   114  ARG114      0.2205
    160  NE        31.4470    8.8580    7.5680 N.pl3 114  ARG114     -0.0865
    161  CZ        30.4620    9.0040    8.4540 C.cat 114  ARG114      0.5346
    162  NH1       30.6150    8.5920    9.7050 N.pl3 114  ARG114      0.1354
    163  NH2       29.3170    9.5760    8.0950 N.pl3 114  ARG114      0.1354
    164  N         45.3750    9.2620   11.2200 N.3   118  ASN118     -0.1240
    165  CA        45.7160   10.5160   11.8890 C.3   118  ASN118      0.1653
    166  C         47.1650   10.4290   12.2850 C.2   118  ASN118      0.2266
    167  O         47.7070    9.3180   12.4970 O.2   118  ASN118     -0.2867
    168  CB        44.8510   10.7500   13.1360 C.3   118  ASN118      0.1155
    169  CG        43.4370   11.2190   12.8210 C.2   118  ASN118      0.2627
    170  OD1       42.4900   10.7180   13.3990 O.2   118  ASN118     -0.2716
    171  ND2       43.2930   12.1770   11.9200 N.am  118  ASN118     -0.0877
@<TRIPOS>BOND
     1   160   159    1
     2   160   161    2
     3   158   159    1
     4   158   157    1
     5   163   161    1
     6   154   157    1
     7   154   155    1
     8   154   153    1
     9   161   162    1
    10   155   156    2
    11   152   150   ar
    12   135   133   ar
    13   135   134   ar
    14    16    14    1
    15   133   131   ar
    16   151   150   ar
    17   150   149    1
    18   134   132   ar
    19    59    58    2
    20    60    57    1
    21   131   130   ar
    22   131   129   ar
    23   125   124    2
    24    57    58    1
    25    57    56    1
    26   164   165    1
    27   130   128   ar
    28    14    15    1
    29    14    13    1
    30    58    61   am
    31   132   129   ar
    32   149   148    1
    33   139   138    2
    34   129   127   ar
    35    52    51    2
    36   165   166    1
    37   165   168    1
    38    47    46    1
    39   148   145    1
    40   171   169   am
    41    56    51   am
    42   122   123    1
    43    10     9    1
    44    10    13    1
    45    10    11    1
    46   124   123    1
    47   128   127   ar
    48   166   167    2
    49   143   141    1
    50    46    48    1
    51    46    43    1
    52    51    50    1
    53   127   126    1
    54   136   137    1
    55    61    62    1
    56   140   141    1
    57   140   137    1
    58    64    63    2
    59   138   137    1
    60   169   168    1
    61   169   170    2
    62   123   126    1
    63   141   142    1
    64   144   145    1
    65    63    62    1
    66    12    11    2
    67    62    65    1
    68   145   146    1
    69    49    50    1
    70    49    44   am
    71   147   146    2
    72    50    53    1
    73    43    44    1
    74    43    42    1
    75    44    45    2
    76     3     4    2
    77     3     2    1
    78    55    53    1
    79    65    67    1
    80    65    66    1
    81     7     6    2
    82    53    54    1
    83     6     5    1
    84     6     8   am
    85     5     2    1
    86     2     1    1
    87   119   117   ar
    88   119   121   ar
    89   102   103    1
    90   102    99    1
    91   110   108    1
    92   109   108    1
    93   117   116   ar
    94    22    21    1
    95    40    39    1
    96    17    18    1
    97   121   120   ar
    98   108   105    1
    99   112   113    1
   100   112   111    1
   101   112   115    1
   102    99    98    1
   103    99   100    1
   104   105   106    1
   105   105   104    1
   106    21    18    1
   107   116   115    1
   108   116   118   ar
   109   113   114    2
   110    34    33    1
   111   120   118   ar
   112    18    19    1
   113    39    41    1
   114    39    36    1
   115    37    38    2
   116    37    36    1
   117   106   107    2
   118    97    94    1
   119   100   101    2
   120    76    77   ar
   121    76    74   ar
   122    79    77   ar
   123    79    81   ar
   124    90    92   ar
   125    90    88   ar
   126    36    35    1
   127    20    19    2
   128    77    75   ar
   129    33    32   ar
   130    33    31   ar
   131    81    80   ar
   132    74    73   ar
   133    32    30   ar
   134    92    91   ar
   135    88    87   ar
   136    94    95    1
   137    94    93    1
   138    75    73   ar
   139    75    78   ar
   140    95    96    2
   141    85    84    2
   142    73    72    1
   143    31    29   ar
   144    80    78   ar
   145    30    28   ar
   146    93    84   am
   147    91    89   ar
   148    84    83    1
   149    87    89   ar
   150    87    86    1
   151    72    69    1
   152    29    28   ar
   153    28    27    1
   154    86    83    1
   155    83    82    1
   156    69    68    1
   157    69    70    1
   158    27    24    1
   159    70    71    2
   160    25    26    2
   161    25    24    1
   162    24    23    1
