@<TRIPOS>MOLECULE
tmp/2c1xA01.pdb
 171 169 0 0 0
SMALL
GASTEIGER

@<TRIPOS>ATOM
      1  N          2.2280  -13.5400   35.9930 N.3     9  PHE9       -0.1241
      2  CA         2.7980  -14.4790   34.9930 C.3     9  PHE9        0.1605
      3  C          4.1430  -13.9140   34.5330 C.2     9  PHE9        0.2264
      4  O          4.1960  -12.7920   33.9830 O.2     9  PHE9       -0.2867
      5  CB         1.8060  -14.6630   33.8260 C.3     9  PHE9        0.0534
      6  CG         2.2950  -15.5480   32.7260 C.ar    9  PHE9       -0.0203
      7  CD1        2.2560  -16.9360   32.8590 C.ar    9  PHE9       -0.0042
      8  CD2        2.7440  -14.9850   31.5110 C.ar    9  PHE9       -0.0042
      9  CE1        2.6830  -17.7710   31.7980 C.ar    9  PHE9       -0.0003
     10  CE2        3.1580  -15.8060   30.4500 C.ar    9  PHE9       -0.0003
     11  CZ         3.1250  -17.1900   30.6010 C.ar    9  PHE9       -0.0000
     12  N          6.4500  -14.1960   32.2710 N.3    11  PHE11      -0.1227
     13  CA         7.0260  -14.1400   30.9200 C.3    11  PHE11       0.1736
     14  C          6.3400  -13.0580   30.0940 C.2    11  PHE11       0.2596
     15  O          5.2060  -12.6620   30.3870 O.2    11  PHE11      -0.2718
     16  CB         6.9260  -15.5060   30.2320 C.3    11  PHE11       0.0547
     17  CG         7.4770  -16.6300   31.0590 C.ar   11  PHE11      -0.0202
     18  CD1        8.8420  -16.8770   31.0940 C.ar   11  PHE11      -0.0042
     19  CD2        6.6210  -17.4010   31.8360 C.ar   11  PHE11      -0.0042
     20  CE1        9.3600  -17.9190   31.8860 C.ar   11  PHE11      -0.0003
     21  CE2        7.1170  -18.4320   32.6380 C.ar   11  PHE11      -0.0003
     22  CZ         8.4910  -18.6820   32.6640 C.ar   11  PHE11      -0.0000
     23  N          7.0180  -12.5940   29.0400 N.am   12  SER12      -0.1938
     24  CA         6.5040  -11.4930   28.1990 C.3    12  SER12       0.2055
     25  C          6.1370  -10.2500   29.0140 C.2    12  SER12       0.2644
     26  O          6.6910  -10.0420   30.0820 O.2    12  SER12      -0.2714
     27  CB         5.3260  -11.9670   27.3460 C.3    12  SER12       0.2130
     28  OG         5.8110  -12.7930   26.3100 O.3    12  SER12      -0.2179
     29  N          5.2360   -9.4010   28.5240 N.am   13  THR13      -0.1936
     30  CA         4.8860   -8.2080   29.2900 C.3    13  THR13       0.2028
     31  C          3.5690   -8.4470   30.0130 C.2    13  THR13       0.2642
     32  O          2.4930   -8.0240   29.5550 O.2    13  THR13      -0.2714
     33  CB         4.8340   -6.9610   28.3930 C.3    13  THR13       0.1808
     34  OG1        6.0820   -6.8590   27.7060 O.3    13  THR13      -0.2208
     35  CG2        4.5730   -5.6470   29.2210 C.3    13  THR13       0.0379
     36  N          3.6620   -9.1860   31.1140 N.am   14  HIS14      -0.1973
     37  CA         2.4830   -9.5640   31.9030 C.3    14  HIS14       0.1656
     38  C          2.6040   -9.0600   33.3190 C.2    14  HIS14       0.2291
     39  O          1.6240   -8.5660   33.8790 O.2    14  HIS14      -0.2864
     40  CB         2.3510  -11.0870   31.9490 C.3    14  HIS14       0.0771
     41  CG         1.6810  -11.6950   30.7560 C.ar   14  HIS14       0.0820
     42  ND1        2.3170  -11.8580   29.5400 N.ar   14  HIS14      -0.2267
     43  CD2        0.4640  -12.2790   30.6250 C.ar   14  HIS14       0.1154
     44  CE1        1.4930  -12.4540   28.6960 C.ar   14  HIS14       0.1986
     45  NE2        0.3720  -12.7430   29.3360 N.ar   14  HIS14      -0.2212
     46  N          9.5340  -22.4520   24.8010 N.3    71  GLN71      -0.1245
     47  CA         8.6370  -22.2590   25.9500 C.3    71  GLN71       0.1566
     48  C          8.7250  -23.4270   26.9400 C.2    71  GLN71       0.2260
     49  O          7.7320  -23.7780   27.5920 O.2    71  GLN71      -0.2867
     50  CB         7.1750  -22.0860   25.4990 C.3    71  GLN71       0.0367
     51  CG         6.8500  -20.7470   24.8330 C.3    71  GLN71       0.0905
     52  CD         5.5620  -20.8020   24.0160 C.2    71  GLN71       0.2608
     53  OE1        4.9840  -21.8800   23.8020 O.2    71  GLN71      -0.2717
     54  NE2        5.1080  -19.6290   23.5410 N.am   71  GLN71      -0.0878
     55  N          8.5060  -21.8870   30.3070 N.3    74  ILE74      -0.1245
     56  CA         7.1140  -21.6190   30.5980 C.3    74  ILE74       0.1561
     57  C          6.4050  -22.8770   31.0990 C.2    74  ILE74       0.2260
     58  O          5.6100  -22.8080   32.0420 O.2    74  ILE74      -0.2867
     59  CB         6.3940  -20.9800   29.3800 C.3    74  ILE74       0.0252
     60  CG1        7.1230  -19.6930   28.9460 C.3    74  ILE74       0.0019
     61  CG2        4.9730  -20.6300   29.6940 C.3    74  ILE74       0.0019
     62  CD1        6.3560  -18.8430   27.8930 C.3    74  ILE74       0.0001
     63  N         -3.6090  -16.2180   33.0120 N.3   108  PHE108     -0.1241
     64  CA        -2.7760  -17.3560   32.5830 C.3   108  PHE108      0.1605
     65  C         -2.2480  -18.1580   33.7570 C.2   108  PHE108      0.2264
     66  O         -1.4380  -19.0780   33.5600 O.2   108  PHE108     -0.2867
     67  CB        -1.5450  -16.9230   31.7770 C.3   108  PHE108      0.0534
     68  CG        -1.8260  -16.5670   30.3360 C.ar  108  PHE108     -0.0203
     69  CD1       -3.0910  -16.7180   29.7840 C.ar  108  PHE108     -0.0042
     70  CD2       -0.7840  -16.1330   29.5090 C.ar  108  PHE108     -0.0042
     71  CE1       -3.3430  -16.3800   28.4470 C.ar  108  PHE108     -0.0003
     72  CE2       -1.0270  -15.8070   28.1680 C.ar  108  PHE108     -0.0003
     73  CZ        -2.3030  -15.9250   27.6470 C.ar  108  PHE108     -0.0000
     74  N         -4.4310   -9.5450   30.4630 N.3   128  THR128     -0.1203
     75  CA        -3.3930   -8.5400   30.1300 C.3   128  THR128      0.1994
     76  C         -3.4320   -8.0700   28.6680 C.2   128  THR128      0.2617
     77  O         -2.6910   -7.1470   28.2880 O.2   128  THR128     -0.2717
     78  CB        -1.9320   -9.0270   30.4780 C.3   128  THR128      0.1784
     79  OG1       -1.4490   -9.9520   29.4840 O.3   128  THR128     -0.2211
     80  CG2       -1.9360   -9.7560   31.8000 C.3   128  THR128      0.0376
     81  N         -4.2790   -8.7170   27.8730 N.am  129  ALA129     -0.1979
     82  CA        -4.3340   -8.4580   26.4370 C.3   129  ALA129      0.1597
     83  C         -5.6870   -7.8100   26.0540 C.2   129  ALA129      0.2287
     84  O         -6.3190   -7.1340   26.8820 O.2   129  ALA129     -0.2864
     85  CB        -4.0900   -9.7530   25.6770 C.3   129  ALA129      0.0319
     86  N          0.1930  -25.9910   27.0840 N.3   187  PHE187     -0.1241
     87  CA        -0.2630  -24.5980   26.9300 C.3   187  PHE187      0.1605
     88  C         -1.7020  -24.5610   26.3750 C.2   187  PHE187      0.2264
     89  O         -2.5510  -23.8450   26.9200 O.2   187  PHE187     -0.2867
     90  CB         0.7510  -23.7900   26.0810 C.3   187  PHE187      0.0534
     91  CG         0.7040  -22.2700   26.2760 C.ar  187  PHE187     -0.0203
     92  CD1        0.7570  -21.6890   27.5520 C.ar  187  PHE187     -0.0042
     93  CD2        0.6640  -21.4140   25.1590 C.ar  187  PHE187     -0.0042
     94  CE1        0.7280  -20.2600   27.7170 C.ar  187  PHE187     -0.0003
     95  CE2        0.6370  -20.0080   25.3060 C.ar  187  PHE187     -0.0003
     96  CZ         0.6610  -19.4290   26.5950 C.ar  187  PHE187     -0.0000
     97  N         10.0220  -10.7230   23.5520 N.3   259  VAL259     -0.1245
     98  CA        10.3210  -12.1610   23.3720 C.3   259  VAL259      0.1561
     99  C         10.2960  -12.6300   21.9310 C.2   259  VAL259      0.2260
    100  O         10.3180  -13.8400   21.6660 O.2   259  VAL259     -0.2867
    101  CB         9.3040  -13.1050   24.1390 C.3   259  VAL259      0.0252
    102  CG1        9.4880  -13.0410   25.6680 C.3   259  VAL259      0.0019
    103  CG2        7.8640  -12.8020   23.7450 C.3   259  VAL259      0.0019
    104  N          4.9950   -6.0320   16.3220 N.3   328  HIS328     -0.1241
    105  CA         4.4040   -7.3790   16.3340 C.3   328  HIS328      0.1621
    106  C          2.9310   -7.3300   16.7670 C.2   328  HIS328      0.2264
    107  O          2.2940   -8.3520   16.8060 O.2   328  HIS328     -0.2867
    108  CB         5.1920   -8.3640   17.2710 C.3   328  HIS328      0.0745
    109  CG         5.0480   -8.0910   18.7520 C.ar  328  HIS328      0.0817
    110  ND1        5.0110   -6.8180   19.2850 N.ar  328  HIS328     -0.2268
    111  CD2        4.9870   -8.9380   19.8220 C.ar  328  HIS328      0.1154
    112  CE1        4.9200   -6.8820   20.6050 C.ar  328  HIS328      0.1986
    113  NE2        4.8840   -8.1550   20.9570 N.ar  328  HIS328     -0.2212
    114  N          1.6650   -6.4760   19.8330 N.3   330  GLY330     -0.1210
    115  CA         1.4000   -6.8240   21.2210 C.3   330  GLY330      0.1956
    116  C          0.5100   -5.7210   21.7780 C.2   330  GLY330      0.2612
    117  O          0.6030   -4.5470   21.3710 O.2   330  GLY330     -0.2717
    118  N         -0.3790   -6.1160   22.6810 N.am  331  TRP331     -0.1962
    119  CA        -1.3780   -5.2110   23.2560 C.3   331  TRP331      0.1771
    120  C         -0.7850   -3.9630   23.9140 C.2   331  TRP331      0.2619
    121  O         -1.2720   -2.8510   23.7000 O.2   331  TRP331     -0.2715
    122  CB        -2.2790   -5.9840   24.2450 C.3   331  TRP331      0.0590
    123  CG        -3.4760   -5.2220   24.6790 C.ar  331  TRP331      0.0006
    124  CD1       -3.7040   -4.6770   25.9170 C.ar  331  TRP331      0.0946
    125  CD2       -4.6330   -4.9000   23.8820 C.ar  331  TRP331      0.0152
    126  NE1       -4.9420   -4.0550   25.9430 N.ar  331  TRP331     -0.2442
    127  CE2       -5.5250   -4.1800   24.7060 C.ar  331  TRP331      0.0810
    128  CE3       -4.9950   -5.1520   22.5570 C.ar  331  TRP331      0.0012
    129  CZ2       -6.7730   -3.7290   24.2470 C.ar  331  TRP331      0.0191
    130  CZ3       -6.2310   -4.7060   22.1010 C.ar  331  TRP331      0.0001
    131  CH2       -7.1020   -3.9940   22.9470 C.ar  331  TRP331      0.0015
    132  N          0.2710   -4.1190   24.7090 N.am  332  ASN332     -0.1972
    133  CA         0.8190   -2.9510   25.4030 C.3   332  ASN332      0.1688
    134  C          1.4690   -1.9730   24.3980 C.2   332  ASN332      0.2292
    135  O          1.2890   -0.7750   24.5040 O.2   332  ASN332     -0.2864
    136  CB         1.8240   -3.3630   26.5030 C.3   332  ASN332      0.1181
    137  CG         1.2130   -4.3030   27.5110 C.2   332  ASN332      0.2629
    138  OD1        1.3820   -5.5220   27.4210 O.2   332  ASN332     -0.2716
    139  ND2        0.4200   -3.7500   28.4300 N.am  332  ASN332     -0.0877
    140  N          2.3740  -14.5640   16.7270 N.3   350  PHE350     -0.1227
    141  CA         1.6510  -15.6520   17.4020 C.3   350  PHE350      0.1736
    142  C          0.7790  -15.1290   18.4940 C.2   350  PHE350      0.2596
    143  O          0.7210  -13.9070   18.7440 O.2   350  PHE350     -0.2718
    144  CB         2.6030  -16.7180   17.9780 C.3   350  PHE350      0.0547
    145  CG         3.9320  -16.1940   18.3810 C.ar  350  PHE350     -0.0202
    146  CD1        4.0590  -15.2820   19.4330 C.ar  350  PHE350     -0.0042
    147  CD2        5.0870  -16.6360   17.7210 C.ar  350  PHE350     -0.0042
    148  CE1        5.3310  -14.7760   19.8030 C.ar  350  PHE350     -0.0003
    149  CE2        6.3480  -16.1580   18.0830 C.ar  350  PHE350     -0.0003
    150  CZ         6.4750  -15.2380   19.1260 C.ar  350  PHE350     -0.0000
    151  N          0.1270  -16.0490   19.1970 N.am  351  GLY351     -0.1942
    152  CA        -0.7800  -15.6470   20.2720 C.3   351  GLY351      0.2014
    153  C         -1.9000  -14.7940   19.7170 C.2   351  GLY351      0.2639
    154  O         -2.4660  -15.1350   18.6830 O.2   351  GLY351     -0.2714
    155  N         -2.1970  -13.6870   20.4080 N.am  352  ASP352     -0.1957
    156  CA        -3.2460  -12.7220   20.0510 C.3   352  ASP352      0.1840
    157  C         -2.8530  -11.6970   18.9700 C.2   352  ASP352      0.2621
    158  O         -3.6420  -10.7940   18.6240 O.2   352  ASP352     -0.2715
    159  CB        -3.6690  -11.9300   21.3040 C.3   352  ASP352      0.1450
    160  CG        -2.5700  -10.9810   21.8120 C.2   352  ASP352      0.3671
    161  OD1       -1.3740  -11.2720   21.6090 O.co2 352  ASP352     -0.2456
    162  OD2       -2.8930   -9.9370   22.4100 O.co2 352  ASP352     -0.2456
    163  N         -1.6490  -11.8350   18.4430 N.am  353  GLN353     -0.1977
    164  CA        -1.0700  -10.7490   17.6410 C.3   353  GLN353      0.1601
    165  C         -1.7880  -10.5790   16.3220 C.2   353  GLN353      0.2287
    166  O         -1.9760   -9.4440   15.8830 O.2   353  GLN353     -0.2864
    167  CB         0.4290  -10.9530   17.4730 C.3   353  GLN353      0.0394
    168  CG         1.2000  -10.8010   18.8180 C.3   353  GLN353      0.0908
    169  CD         2.5790  -11.4290   18.7610 C.2   353  GLN353      0.2608
    170  OE1        3.1080  -11.6930   17.6910 O.2   353  GLN353     -0.2717
    171  NE2        3.1640  -11.6730   19.9170 N.am  353  GLN353     -0.0878
@<TRIPOS>BOND
     1   166   165    2
     2   104   105    1
     3   165   164    1
     4   105   106    1
     5   105   108    1
     6   140   141    1
     7   106   107    2
     8   108   109    1
     9   141   144    1
    10   141   142    1
    11   167   164    1
    12   167   168    1
    13   164   163    1
    14   170   169    2
    15   147   149   ar
    16   147   145   ar
    17   144   145    1
    18   149   150   ar
    19   145   146   ar
    20   163   157   am
    21   142   143    2
    22   142   151   am
    23   158   157    2
    24   154   153    2
    25   109   110   ar
    26   109   111   ar
    27   169   168    1
    28   169   171   am
    29   157   156    1
    30   150   148   ar
    31   151   152    1
    32   110   112   ar
    33   146   148   ar
    34   153   152    1
    35   153   155   am
    36   111   113   ar
    37   114   115    1
    38   156   155    1
    39   156   159    1
    40   112   113   ar
    41   115   116    1
    42   159   160    1
    43   117   116    2
    44   161   160   ar
    45   100    99    2
    46   116   118   am
    47   160   162   ar
    48    99    98    1
    49   130   128   ar
    50   130   131   ar
    51   128   125   ar
    52   118   119    1
    53   131   129   ar
    54   119   120    1
    55   119   122    1
    56    98    97    1
    57    98   101    1
    58    54    52   am
    59   121   120    2
    60   103   101    1
    61    53    52    2
    62   125   123   ar
    63   125   127   ar
    64   120   132   am
    65    52    51    1
    66   101   102    1
    67   122   123    1
    68   129   127   ar
    69   134   135    2
    70   134   133    1
    71   123   124   ar
    72   127   126   ar
    73   132   133    1
    74    46    47    1
    75    51    50    1
    76    93    95   ar
    77    93    91   ar
    78    95    96   ar
    79   133   136    1
    80    50    47    1
    81    85    82    1
    82   124   126   ar
    83    47    48    1
    84    83    82    1
    85    83    84    2
    86    90    91    1
    87    90    87    1
    88    91    92   ar
    89    28    27    1
    90    88    89    2
    91    88    87    1
    92    82    81    1
    93   136   137    1
    94    96    94   ar
    95    87    86    1
    96    48    49    2
    97    27    24    1
    98   138   137    2
    99   137   139   am
   100    92    94   ar
   101    73    72   ar
   102    73    71   ar
   103    34    33    1
   104    81    76   am
   105    62    60    1
   106    72    70   ar
   107    24    25    1
   108    24    23    1
   109    77    76    2
   110    33    35    1
   111    33    30    1
   112    71    69   ar
   113    29    25   am
   114    29    30    1
   115    76    75    1
   116    44    45   ar
   117    44    42   ar
   118    60    59    1
   119    25    26    2
   120    23    14   am
   121    30    31    1
   122    45    43   ar
   123    59    61    1
   124    59    56    1
   125    79    78    1
   126    70    68   ar
   127    42    41   ar
   128    32    31    2
   129    69    68   ar
   130    31    36   am
   131    14    15    2
   132    14    13    1
   133    75    74    1
   134    75    78    1
   135    16    13    1
   136    16    17    1
   137    55    56    1
   138    68    67    1
   139    10    11   ar
   140    10     8   ar
   141    78    80    1
   142    56    57    1
   143    11     9   ar
   144    43    41   ar
   145    41    40    1
   146    13    12    1
   147    17    18   ar
   148    17    19   ar
   149    18    20   ar
   150    57    58    2
   151    36    37    1
   152     8     6   ar
   153    67    64    1
   154     9     7   ar
   155    19    21   ar
   156    20    22   ar
   157    37    40    1
   158    37    38    1
   159    64    63    1
   160    64    65    1
   161    21    22   ar
   162     6     7   ar
   163     6     5    1
   164    38    39    2
   165    66    65    2
   166     5     2    1
   167     4     3    2
   168     3     2    1
   169     2     1    1
