@<TRIPOS>MOLECULE
tmp/2c1zA01.pdb
 207 205 0 0 0
SMALL
GASTEIGER

@<TRIPOS>ATOM
      1  N          7.1870  -12.6820   29.3660 N.3    13  SER13      -0.1202
      2  CA         6.8490  -11.5020   28.5210 C.3    13  SER13       0.2020
      3  C          6.2660  -10.3300   29.3050 C.2    13  SER13       0.2619
      4  O          6.7300  -10.0550   30.4020 O.2    13  SER13      -0.2717
      5  CB         6.0120  -11.8780   27.2820 C.3    13  SER13       0.2103
      6  OG         4.6400  -12.0380   27.5850 O.3    13  SER13      -0.2182
      7  N          5.2870   -9.6150   28.7550 N.am   14  THR14      -0.1938
      8  CA         4.7930   -8.4080   29.4160 C.3    14  THR14       0.2028
      9  C          3.4590   -8.7210   30.0930 C.2    14  THR14       0.2642
     10  O          2.3560   -8.4510   29.5490 O.2    14  THR14      -0.2714
     11  CB         4.6820   -7.2040   28.4280 C.3    14  THR14       0.1808
     12  OG1        5.9460   -6.9930   27.7810 O.3    14  THR14      -0.2208
     13  CG2        4.2750   -5.9040   29.1550 C.3    14  THR14       0.0379
     14  N          3.5650   -9.3740   31.2400 N.am   15  HIS15      -0.1973
     15  CA         2.4120   -9.7680   32.0360 C.3    15  HIS15       0.1656
     16  C          2.5540   -9.2410   33.4620 C.2    15  HIS15       0.2291
     17  O          1.5940   -8.7120   34.0130 O.2    15  HIS15      -0.2864
     18  CB         2.2750  -11.3010   32.0720 C.3    15  HIS15       0.0771
     19  CG         1.6150  -11.9110   30.8580 C.ar   15  HIS15       0.0820
     20  ND1        0.3120  -12.3780   30.8660 N.ar   15  HIS15      -0.2267
     21  CD2        2.1080  -12.1960   29.6270 C.ar   15  HIS15       0.1154
     22  CE1        0.0280  -12.9010   29.6820 C.ar   15  HIS15       0.1986
     23  NE2        1.0980  -12.7940   28.9120 N.ar   15  HIS15      -0.2212
     24  N         -4.5270   -9.6850   30.5110 N.3   134  THR134     -0.1203
     25  CA        -3.5200   -8.6680   30.2030 C.3   134  THR134      0.1994
     26  C         -3.5060   -8.2250   28.7400 C.2   134  THR134      0.2617
     27  O         -2.7530   -7.3250   28.3800 O.2   134  THR134     -0.2717
     28  CB        -2.0860   -9.0930   30.6040 C.3   134  THR134      0.1784
     29  OG1       -1.5190   -9.9650   29.6090 O.3   134  THR134     -0.2211
     30  CG2       -2.0820   -9.7850   31.9460 C.3   134  THR134      0.0376
     31  N         -4.3590   -8.8360   27.9190 N.am  135  ALA135     -0.1979
     32  CA        -4.4230   -8.4790   26.5020 C.3   135  ALA135      0.1597
     33  C         -5.7790   -7.8390   26.1250 C.2   135  ALA135      0.2287
     34  O         -6.4160   -7.1800   26.9530 O.2   135  ALA135     -0.2864
     35  CB        -4.0910   -9.6920   25.6480 C.3   135  ALA135      0.0319
     36  N          9.8950    3.8690   13.9910 N.3   259  TYR259     -0.1241
     37  CA        10.2850    3.0370   15.1210 C.3   259  TYR259      0.1605
     38  C          9.9300    1.5640   14.8700 C.2   259  TYR259      0.2264
     39  O          8.8240    1.2610   14.4050 O.2   259  TYR259     -0.2867
     40  CB         9.6410    3.5670   16.4080 C.3   259  TYR259      0.0534
     41  CG         9.9280    2.6920   17.5980 C.ar  259  TYR259     -0.0201
     42  CD1       11.2320    2.5860   18.1200 C.ar  259  TYR259     -0.0009
     43  CD2        8.9010    1.9540   18.2100 C.ar  259  TYR259     -0.0009
     44  CE1       11.4940    1.7400   19.2350 C.ar  259  TYR259      0.0417
     45  CE2        9.1660    1.0850   19.3170 C.ar  259  TYR259      0.0417
     46  CZ        10.4580    1.0000   19.8190 C.ar  259  TYR259      0.1957
     47  OH        10.7300    0.1790   20.9260 O.3   259  TYR259     -0.2866
     48  N          9.8910   -2.4130   16.5890 N.3   261  SER261     -0.1217
     49  CA        10.0700   -3.3550   17.7120 C.3   261  SER261      0.1889
     50  C          9.0950   -4.5110   17.6460 C.2   261  SER261      0.2288
     51  O          7.9110   -4.3360   17.2890 O.2   261  SER261     -0.2866
     52  CB         9.9380   -2.6530   19.0760 C.3   261  SER261      0.2089
     53  OG        10.2230   -3.5970   20.1200 O.3   261  SER261     -0.2183
     54  N          8.4440   -6.6860   20.4020 N.3   263  GLY263     -0.1210
     55  CA         7.9900   -7.0650   21.7310 C.3   263  GLY263      0.1956
     56  C          9.1170   -7.6100   22.5870 C.2   263  GLY263      0.2613
     57  O         10.2540   -7.1060   22.5360 O.2   263  GLY263     -0.2717
     58  N          8.8110   -8.6350   23.3730 N.am  264  THR264     -0.1938
     59  CA         9.7910   -9.1470   24.3310 C.3   264  THR264      0.2028
     60  C         10.2510  -10.5780   24.0550 C.2   264  THR264      0.2642
     61  O         11.2740  -11.0200   24.6030 O.2   264  THR264     -0.2714
     62  CB         9.2650   -9.0640   25.7710 C.3   264  THR264      0.1808
     63  OG1        8.0280   -9.7830   25.8690 O.3   264  THR264     -0.2208
     64  CG2        9.0570   -7.6030   26.1790 C.3   264  THR264      0.0379
     65  N          9.5120  -11.3000   23.2190 N.am  265  VAL265     -0.1963
     66  CA         9.8200  -12.7180   22.9870 C.3   265  VAL265      0.1727
     67  C          9.9000  -13.1160   21.5090 C.2   265  VAL265      0.2616
     68  O          9.9420  -14.3060   21.1860 O.2   265  VAL265     -0.2715
     69  CB         8.8690  -13.6710   23.7940 C.3   265  VAL265      0.0290
     70  CG1        9.1510  -13.5650   25.2970 C.3   265  VAL265      0.0023
     71  CG2        7.4080  -13.3780   23.5090 C.3   265  VAL265      0.0023
     72  N          9.9430  -12.1170   20.6270 N.am  266  THR266     -0.1951
     73  CA        10.0650  -12.3440   19.1810 C.3   266  THR266      0.1897
     74  C         11.2480  -11.6180   18.5380 C.2   266  THR266      0.2313
     75  O         11.6130  -10.5080   18.9390 O.2   266  THR266     -0.2863
     76  CB         8.8100  -11.8610   18.4210 C.3   266  THR266      0.1794
     77  OG1        7.6320  -12.2190   19.1470 O.3   266  THR266     -0.2208
     78  CG2        8.7600  -12.4730   17.0290 C.3   266  THR266      0.0378
     79  N         14.6300   -1.3220   17.6660 N.3   290  SER290     -0.1217
     80  CA        14.8610   -2.1260   18.8630 C.3   290  SER290      0.1889
     81  C         15.0470   -3.5600   18.4040 C.2   290  SER290      0.2288
     82  O         14.1030   -4.2040   17.9120 O.2   290  SER290     -0.2866
     83  CB        13.6840   -1.9860   19.8570 C.3   290  SER290      0.2089
     84  OG        13.8140   -2.9260   20.9120 O.3   290  SER290     -0.2183
     85  N         17.4740   -2.1150   23.4930 N.3   316  TRP316     -0.1227
     86  CA        16.2940   -1.6730   24.2560 C.3   316  TRP316      0.1737
     87  C         16.0910   -0.1860   24.0810 C.2   316  TRP316      0.2595
     88  O         17.0300    0.5990   24.2000 O.2   316  TRP316     -0.2718
     89  CB        16.4550   -1.9580   25.7560 C.3   316  TRP316      0.0564
     90  CG        15.2030   -1.8230   26.6190 C.ar  316  TRP316      0.0003
     91  CD1       14.9410   -0.8420   27.5340 C.ar  316  TRP316      0.0946
     92  CD2       14.0940   -2.7230   26.6720 C.ar  316  TRP316      0.0152
     93  NE1       13.7360   -1.0740   28.1530 N.ar  316  TRP316     -0.2442
     94  CE2       13.1930   -2.2230   27.6420 C.ar  316  TRP316      0.0810
     95  CE3       13.7690   -3.9120   25.9910 C.ar  316  TRP316      0.0012
     96  CZ2       11.9730   -2.8670   27.9480 C.ar  316  TRP316      0.0191
     97  CZ3       12.5580   -4.5510   26.2920 C.ar  316  TRP316      0.0001
     98  CH2       11.6790   -4.0260   27.2680 C.ar  316  TRP316      0.0015
     99  N         14.8500    0.2140   23.8170 N.am  317  ALA317     -0.1966
    100  CA        14.5210    1.6250   23.6540 C.3   317  ALA317      0.1713
    101  C         13.5630    2.0550   24.7480 C.2   317  ALA317      0.2458
    102  O         12.8270    1.2230   25.2850 O.2   317  ALA317     -0.2730
    103  CB        13.8690    1.8630   22.2420 C.3   317  ALA317      0.0333
    104  N         13.5540    3.3550   25.0960 N.am  318  PRO318     -0.2716
    105  CA        12.4560    3.7860   25.9630 C.3   318  PRO318      0.1536
    106  C         11.1830    3.9490   25.1110 C.2   318  PRO318      0.2598
    107  O         10.8230    5.0580   24.7280 O.2   318  PRO318     -0.2715
    108  CB        12.9500    5.1330   26.4990 C.3   318  PRO318      0.0310
    109  CG        13.8900    5.6490   25.3980 C.3   318  PRO318      0.0237
    110  CD        14.5050    4.4460   24.7870 C.3   318  PRO318      0.0939
    111  N         10.5090    2.8370   24.8450 N.am  319  GLN319     -0.1964
    112  CA         9.4930    2.7820   23.7750 C.3   319  GLN319      0.1733
    113  C          8.3130    3.7410   23.9390 C.2   319  GLN319      0.2616
    114  O          7.9270    4.4090   22.9660 O.2   319  GLN319     -0.2715
    115  CB         9.0020    1.3680   23.5790 C.3   319  GLN319      0.0408
    116  CG         7.8220    1.2340   22.5870 C.3   319  GLN319      0.0908
    117  CD         7.5140   -0.2210   22.2670 C.2   319  GLN319      0.2608
    118  OE1        8.3770   -0.9590   21.8340 O.2   319  GLN319     -0.2717
    119  NE2        6.2650   -0.6110   22.4440 N.am  319  GLN319     -0.0878
    120  N          7.7010    3.7870   25.1250 N.am  320  ALA320     -0.1977
    121  CA         6.5350    4.6510   25.3050 C.3   320  ALA320      0.1597
    122  C          6.9340    6.1010   25.0460 C.2   320  ALA320      0.2287
    123  O          6.1930    6.8580   24.4060 O.2   320  ALA320     -0.2864
    124  CB         5.8910    4.4860   26.7400 C.3   320  ALA320      0.0319
    125  N          4.8270   -6.0150   16.1140 N.3   334  HIS334     -0.1241
    126  CA         4.1780   -7.3420   16.1470 C.3   334  HIS334      0.1621
    127  C          2.7030   -7.2930   16.5980 C.2   334  HIS334      0.2264
    128  O          2.0500   -8.3110   16.6610 O.2   334  HIS334     -0.2867
    129  CB         4.9600   -8.3530   17.0290 C.3   334  HIS334      0.0745
    130  CG         4.8490   -8.0990   18.5100 C.ar  334  HIS334      0.0817
    131  ND1        4.8540   -6.8320   19.0550 N.ar  334  HIS334     -0.2268
    132  CD2        4.7460   -8.9540   19.5610 C.ar  334  HIS334      0.1154
    133  CE1        4.7580   -6.9140   20.3730 C.ar  334  HIS334      0.1986
    134  NE2        4.6830   -8.1910   20.7060 N.ar  334  HIS334     -0.2212
    135  N          1.4970   -6.4530   19.6400 N.3   336  GLY336     -0.1210
    136  CA         1.2300   -6.7950   21.0470 C.3   336  GLY336      0.1956
    137  C          0.3250   -5.7350   21.6540 C.2   336  GLY336      0.2612
    138  O          0.3840   -4.5570   21.2610 O.2   336  GLY336     -0.2717
    139  N         -0.5080   -6.1510   22.6150 N.am  337  TRP337     -0.1962
    140  CA        -1.5110   -5.2650   23.2030 C.3   337  TRP337      0.1771
    141  C         -0.8950   -3.9960   23.8270 C.2   337  TRP337      0.2620
    142  O         -1.3980   -2.8980   23.5920 O.2   337  TRP337     -0.2715
    143  CB        -2.3820   -6.0340   24.2220 C.3   337  TRP337      0.0590
    144  CG        -3.5870   -5.2590   24.6940 C.ar  337  TRP337      0.0006
    145  CD1       -3.7910   -4.7280   25.9470 C.ar  337  TRP337      0.0946
    146  CD2       -4.7480   -4.9240   23.9250 C.ar  337  TRP337      0.0152
    147  NE1       -5.0310   -4.1060   26.0130 N.ar  337  TRP337     -0.2442
    148  CE2       -5.6350   -4.2150   24.7850 C.ar  337  TRP337      0.0810
    149  CE3       -5.1480   -5.1890   22.6060 C.ar  337  TRP337      0.0012
    150  CZ2       -6.8740   -3.7500   24.3590 C.ar  337  TRP337      0.0191
    151  CZ3       -6.4050   -4.7270   22.1940 C.ar  337  TRP337      0.0001
    152  CH2       -7.2380   -4.0130   23.0610 C.ar  337  TRP337      0.0015
    153  N          0.1780   -4.1320   24.6130 N.am  338  ASN338     -0.1958
    154  CA         0.7080   -2.9650   25.3260 C.3   338  ASN338      0.1819
    155  C          1.3450   -1.9600   24.3430 C.2   338  ASN338      0.2622
    156  O          1.1530   -0.7480   24.4660 O.2   338  ASN338     -0.2715
    157  CB         1.7210   -3.3820   26.4260 C.3   338  ASN338      0.1195
    158  CG         1.1100   -4.3160   27.4630 C.2   338  ASN338      0.2630
    159  OD1        1.2840   -5.5450   27.3930 O.2   338  ASN338     -0.2716
    160  ND2        0.3310   -3.7620   28.3700 N.am  338  ASN338     -0.0877
    161  N          2.1020   -2.4800   23.3800 N.am  339  SER339     -0.1950
    162  CA         2.6740   -1.6380   22.3200 C.3   339  SER339      0.1924
    163  C          1.5930   -0.8380   21.5640 C.2   339  SER339      0.2314
    164  O          1.7650    0.3530   21.2910 O.2   339  SER339     -0.2863
    165  CB         3.4390   -2.4950   21.3230 C.3   339  SER339      0.2116
    166  OG         4.6660   -2.9270   21.8730 O.3   339  SER339     -0.2180
    167  N          0.3970    2.1650   23.5440 N.3   342  GLU342     -0.1245
    168  CA         1.4630    3.1800   23.5730 C.3   342  GLU342      0.1567
    169  C          1.5250    3.9590   22.2420 C.2   342  GLU342      0.2260
    170  O          1.7990    5.1600   22.2360 O.2   342  GLU342     -0.2867
    171  CB         2.8210    2.5590   23.9270 C.3   342  GLU342      0.0388
    172  CG         2.8380    1.8790   25.3170 C.3   342  GLU342      0.1160
    173  CD         4.0300    0.9730   25.5580 C.2   342  GLU342      0.3649
    174  OE1        4.8820    0.7540   24.6520 O.co2 342  GLU342     -0.2457
    175  OE2        4.1150    0.4570   26.7110 O.co2 342  GLU342     -0.2457
    176  N          2.0450  -14.4280   16.6060 N.3   356  PHE356     -0.1227
    177  CA         1.4920  -15.5280   17.4060 C.3   356  PHE356      0.1736
    178  C          0.4900  -15.0160   18.4150 C.2   356  PHE356      0.2596
    179  O          0.3480  -13.8050   18.5990 O.2   356  PHE356     -0.2718
    180  CB         2.6280  -16.2880   18.1320 C.3   356  PHE356      0.0547
    181  CG         3.2950  -15.4980   19.2450 C.ar  356  PHE356     -0.0202
    182  CD1        2.7230  -15.4440   20.5150 C.ar  356  PHE356     -0.0042
    183  CD2        4.5270  -14.8630   19.0380 C.ar  356  PHE356     -0.0042
    184  CE1        3.3410  -14.7160   21.5630 C.ar  356  PHE356     -0.0003
    185  CE2        5.1620  -14.1370   20.0740 C.ar  356  PHE356     -0.0003
    186  CZ         4.5650  -14.0710   21.3360 C.ar  356  PHE356     -0.0000
    187  N         -0.1990  -15.9340   19.0840 N.am  357  GLY357     -0.1942
    188  CA        -1.1380  -15.5550   20.1320 C.3   357  GLY357      0.2014
    189  C         -2.2490  -14.6740   19.6000 C.2   357  GLY357      0.2639
    190  O         -2.8830  -15.0090   18.5890 O.2   357  GLY357     -0.2714
    191  N         -2.4500  -13.5350   20.2700 N.am  358  ASP358     -0.1957
    192  CA        -3.5060  -12.5640   19.9530 C.3   358  ASP358      0.1840
    193  C         -3.1080  -11.5240   18.9040 C.2   358  ASP358      0.2621
    194  O         -3.8810  -10.6110   18.6030 O.2   358  ASP358     -0.2715
    195  CB        -3.9230  -11.7890   21.2120 C.3   358  ASP358      0.1450
    196  CG        -2.8060  -10.8850   21.7590 C.2   358  ASP358      0.3671
    197  OD1       -1.6210  -11.1920   21.5370 O.co2 358  ASP358     -0.2456
    198  OD2       -3.1120   -9.8600   22.4120 O.co2 358  ASP358     -0.2456
    199  N         -1.8980  -11.6300   18.3910 N.am  359  GLN359     -0.1977
    200  CA        -1.3620  -10.5520   17.5670 C.3   359  GLN359      0.1601
    201  C         -2.1280  -10.4050   16.2390 C.2   359  GLN359      0.2287
    202  O         -2.2880   -9.2910   15.7440 O.2   359  GLN359     -0.2864
    203  CB         0.1400  -10.7400   17.3550 C.3   359  GLN359      0.0394
    204  CG         0.9730  -10.5610   18.6750 C.3   359  GLN359      0.0908
    205  CD         2.2940  -11.3060   18.6550 C.2   359  GLN359      0.2608
    206  OE1        2.8490  -11.6120   17.5880 O.2   359  GLN359     -0.2717
    207  NE2        2.8300  -11.5850   19.8640 N.am  359  GLN359     -0.0878
@<TRIPOS>BOND
     1    36    37    1
     2    39    38    2
     3    38    37    1
     4    37    40    1
     5   202   201    2
     6   125   126    1
     7   126   127    1
     8   126   129    1
     9   201   200    1
    10    40    41    1
    11    48    49    1
    12   127   128    2
    13   176   177    1
    14    78    76    1
    15   129   130    1
    16    51    50    2
    17   203   200    1
    18   203   204    1
    19   177   180    1
    20   177   178    1
    21   200   199    1
    22   206   205    2
    23    41    42   ar
    24    41    43   ar
    25    50    49    1
    26    79    80    1
    27    49    52    1
    28    82    81    2
    29    42    44   ar
    30   180   181    1
    31    43    45   ar
    32   199   193   am
    33    81    80    1
    34   178   179    2
    35   178   187   am
    36    76    77    1
    37    76    73    1
    38   130   131   ar
    39   130   132   ar
    40    74    75    2
    41    74    73    1
    42   190   189    2
    43   194   193    2
    44   205   204    1
    45   205   207   am
    46    80    83    1
    47   193   192    1
    48   183   181   ar
    49   183   185   ar
    50   131   133   ar
    51    52    53    1
    52   187   188    1
    53    73    72    1
    54    44    46   ar
    55   181   182   ar
    56    45    46   ar
    57   132   134   ar
    58   189   188    1
    59   189   191   am
    60   135   136    1
    61    46    47    1
    62    83    84    1
    63   192   191    1
    64   192   195    1
    65   185   186   ar
    66   133   134   ar
    67    54    55    1
    68   182   184   ar
    69    72    67   am
    70   136   137    1
    71    68    67    2
    72   195   196    1
    73   138   137    2
    74   164   163    2
    75   165   166    1
    76   165   162    1
    77   186   184   ar
    78    67    66    1
    79   197   196   ar
    80   163   162    1
    81   137   139   am
    82    55    56    1
    83   196   198   ar
    84   118   117    2
    85   151   149   ar
    86   151   152   ar
    87   170   169    2
    88   169   168    1
    89   103   100    1
    90   117   119   am
    91   117   116    1
    92   162   161    1
    93    57    56    2
    94    56    58   am
    95   116   115    1
    96   149   146   ar
    97   139   140    1
    98   114   113    2
    99    66    65    1
   100    66    69    1
   101   152   150   ar
   102   140   141    1
   103   140   143    1
   104    65    60   am
   105    58    59    1
   106   161   155   am
   107    85    86    1
   108    71    69    1
   109   167   168    1
   110   168   171    1
   111   115   112    1
   112   142   141    2
   113   100    99    1
   114   100   101    1
   115   112   113    1
   116   112   111    1
   117    69    70    1
   118    99    87   am
   119   141   153   am
   120   146   144   ar
   121   146   148   ar
   122   171   172    1
   123   113   120   am
   124    60    59    1
   125    60    61    2
   126    87    88    2
   127    87    86    1
   128   143   144    1
   129    86    89    1
   130    59    62    1
   131   155   156    2
   132   155   154    1
   133   150   148   ar
   134   123   122    2
   135   153   154    1
   136   174   173   ar
   137   144   145   ar
   138   107   106    2
   139   101   104   am
   140   101   102    2
   141   148   147   ar
   142   110   104    1
   143   110   109    1
   144   111   106   am
   145   122   121    1
   146   104   105    1
   147   106   105    1
   148   120   121    1
   149   121   124    1
   150   172   173    1
   151   154   157    1
   152   109   108    1
   153   173   175   ar
   154    35    32    1
   155    89    90    1
   156    62    63    1
   157    62    64    1
   158   145   147   ar
   159   105   108    1
   160    95    97   ar
   161    95    92   ar
   162    33    32    1
   163    33    34    2
   164    97    98   ar
   165   157   158    1
   166    32    31    1
   167    90    92   ar
   168    90    91   ar
   169    92    94   ar
   170    98    96   ar
   171     5     6    1
   172     5     2    1
   173   159   158    2
   174   158   160   am
   175    91    93   ar
   176    94    96   ar
   177    94    93   ar
   178    12    11    1
   179    31    26   am
   180    27    26    2
   181    11    13    1
   182    11     8    1
   183     2     3    1
   184     2     1    1
   185    26    25    1
   186     7     3   am
   187     7     8    1
   188    23    21   ar
   189    23    22   ar
   190     3     4    2
   191     8     9    1
   192    10     9    2
   193    29    28    1
   194    21    19   ar
   195    22    20   ar
   196     9    14   am
   197    25    24    1
   198    25    28    1
   199    28    30    1
   200    19    20   ar
   201    19    18    1
   202    14    15    1
   203    15    18    1
   204    15    16    1
   205    16    17    2
