@<TRIPOS>MOLECULE
tmp/2c1zA00.pdb
 168 162 0 0 0
SMALL
GASTEIGER

@<TRIPOS>ATOM
      1  N          2.1570  -13.8820   36.0790 N.3    10  PHE10      -0.1241
      2  CA         2.7450  -14.7880   35.0780 C.3    10  PHE10       0.1605
      3  C          4.0890  -14.1470   34.7150 C.2    10  PHE10       0.2264
      4  O          4.1220  -13.0110   34.2180 O.2    10  PHE10      -0.2867
      5  CB         1.8200  -14.8720   33.8540 C.3    10  PHE10       0.0534
      6  CG         2.2920  -15.7960   32.7680 C.ar   10  PHE10      -0.0203
      7  CD1        2.2220  -17.1820   32.9230 C.ar   10  PHE10      -0.0042
      8  CD2        2.7300  -15.2720   31.5410 C.ar   10  PHE10      -0.0042
      9  CE1        2.6060  -18.0460   31.8760 C.ar   10  PHE10      -0.0003
     10  CE2        3.1050  -16.1310   30.4900 C.ar   10  PHE10      -0.0003
     11  CZ         3.0480  -17.5080   30.6690 C.ar   10  PHE10      -0.0000
     12  N          6.4310  -14.2750   32.5290 N.3    12  PHE12      -0.1227
     13  CA         7.0010  -14.3070   31.1790 C.3    12  PHE12       0.1736
     14  C          6.4000  -13.1880   30.3190 C.2    12  PHE12       0.2596
     15  O          5.2720  -12.8040   30.5330 O.2    12  PHE12      -0.2718
     16  CB         6.7400  -15.6630   30.5210 C.3    12  PHE12       0.0547
     17  CG         7.3000  -16.8130   31.2740 C.ar   12  PHE12      -0.0202
     18  CD1        8.6560  -17.1220   31.1950 C.ar   12  PHE12      -0.0042
     19  CD2        6.4720  -17.5910   32.0850 C.ar   12  PHE12      -0.0042
     20  CE1        9.1720  -18.2090   31.9080 C.ar   12  PHE12      -0.0003
     21  CE2        6.9770  -18.6640   32.8010 C.ar   12  PHE12      -0.0003
     22  CZ         8.3290  -18.9700   32.7130 C.ar   12  PHE12      -0.0000
     23  N          7.1870  -12.6820   29.3660 N.am   13  SER13      -0.1952
     24  CA         6.8490  -11.5020   28.5210 C.3    13  SER13       0.1924
     25  C          6.2660  -10.3300   29.3050 C.2    13  SER13       0.2314
     26  O          6.7300  -10.0550   30.4020 O.2    13  SER13      -0.2863
     27  CB         6.0120  -11.8780   27.2820 C.3    13  SER13       0.2116
     28  OG         4.6400  -12.0380   27.5850 O.3    13  SER13      -0.2180
     29  N          3.5650   -9.3740   31.2400 N.3    15  HIS15      -0.1241
     30  CA         2.4120   -9.7680   32.0360 C.3    15  HIS15       0.1621
     31  C          2.5540   -9.2410   33.4620 C.2    15  HIS15       0.2264
     32  O          1.5940   -8.7120   34.0130 O.2    15  HIS15      -0.2867
     33  CB         2.2750  -11.3010   32.0720 C.3    15  HIS15       0.0745
     34  CG         1.6150  -11.9110   30.8580 C.ar   15  HIS15       0.0817
     35  ND1        0.3120  -12.3780   30.8660 N.ar   15  HIS15      -0.2268
     36  CD2        2.1080  -12.1960   29.6270 C.ar   15  HIS15       0.1154
     37  CE1        0.0280  -12.9010   29.6820 C.ar   15  HIS15       0.1986
     38  NE2        1.0980  -12.7940   28.9120 N.ar   15  HIS15      -0.2212
     39  N          8.6370  -22.8650   24.6960 N.3    77  GLN77      -0.1245
     40  CA         7.7120  -22.8730   25.8430 C.3    77  GLN77       0.1566
     41  C          8.1670  -23.8160   26.9780 C.2    77  GLN77       0.2260
     42  O          7.3940  -24.0760   27.9070 O.2    77  GLN77      -0.2867
     43  CB         6.2520  -23.1680   25.4280 C.3    77  GLN77       0.0367
     44  CG         5.7450  -22.3220   24.2250 C.3    77  GLN77       0.0905
     45  CD         4.3190  -22.6340   23.7880 C.2    77  GLN77       0.2608
     46  OE1        3.8060  -23.7390   23.9780 O.2    77  GLN77      -0.2717
     47  NE2        3.6840  -21.6540   23.1620 N.am   77  GLN77      -0.0878
     48  N          8.1130  -21.9790   30.2780 N.3    80  ILE80      -0.1245
     49  CA         6.7130  -21.8350   30.6420 C.3    80  ILE80       0.1561
     50  C          6.1530  -23.1290   31.2230 C.2    80  ILE80       0.2260
     51  O          5.4360  -23.1020   32.2200 O.2    80  ILE80      -0.2867
     52  CB         5.8360  -21.3850   29.4460 C.3    80  ILE80       0.0252
     53  CG1        6.0540  -19.8970   29.1460 C.3    80  ILE80       0.0019
     54  CG2        4.3400  -21.6310   29.7550 C.3    80  ILE80       0.0019
     55  CD1        5.5510  -19.4620   27.7860 C.3    80  ILE80       0.0001
     56  N         -3.8650  -16.2690   33.0500 N.3   114  PHE114     -0.1241
     57  CA        -3.1510  -17.4410   32.5660 C.3   114  PHE114      0.1605
     58  C         -3.0590  -18.5040   33.6650 C.2   114  PHE114      0.2264
     59  O         -3.1210  -19.7110   33.3590 O.2   114  PHE114     -0.2867
     60  CB        -1.7810  -17.0970   31.9640 C.3   114  PHE114      0.0534
     61  CG        -1.8270  -16.6860   30.4860 C.ar  114  PHE114     -0.0203
     62  CD1       -3.0410  -16.4420   29.8320 C.ar  114  PHE114     -0.0042
     63  CD2       -0.6400  -16.5280   29.7610 C.ar  114  PHE114     -0.0042
     64  CE1       -3.0690  -16.0430   28.4700 C.ar  114  PHE114     -0.0003
     65  CE2       -0.6580  -16.1460   28.4270 C.ar  114  PHE114     -0.0003
     66  CZ        -1.8610  -15.8930   27.7830 C.ar  114  PHE114     -0.0000
     67  N         -7.0000  -10.1590   32.7180 N.3   133  TRP133     -0.1241
     68  CA        -6.6850  -10.4670   31.3220 C.3   133  TRP133      0.1605
     69  C         -5.7690   -9.3520   30.8400 C.2   133  TRP133      0.2264
     70  O         -6.1860   -8.2010   30.7610 O.2   133  TRP133     -0.2867
     71  CB        -7.9620  -10.4820   30.4820 C.3   133  TRP133      0.0550
     72  CG        -7.6670  -10.8640   29.1000 C.ar  133  TRP133      0.0003
     73  CD1       -7.5930  -10.0470   28.0100 C.ar  133  TRP133      0.0946
     74  CD2       -7.3840  -12.1740   28.6530 C.ar  133  TRP133      0.0152
     75  NE1       -7.3090  -10.7870   26.8890 N.ar  133  TRP133     -0.2442
     76  CE2       -7.1560  -12.1000   27.2650 C.ar  133  TRP133      0.0810
     77  CE3       -7.3260  -13.4280   29.2980 C.ar  133  TRP133      0.0012
     78  CZ2       -6.8510  -13.2290   26.4930 C.ar  133  TRP133      0.0191
     79  CZ3       -7.0210  -14.5500   28.5470 C.ar  133  TRP133      0.0001
     80  CH2       -6.7810  -14.4470   27.1490 C.ar  133  TRP133      0.0015
     81  N         -4.3590   -8.8360   27.9190 N.3   135  ALA135     -0.1245
     82  CA        -4.4230   -8.4790   26.5020 C.3   135  ALA135      0.1562
     83  C         -5.7790   -7.8390   26.1250 C.2   135  ALA135      0.2260
     84  O         -6.4160   -7.1800   26.9530 O.2   135  ALA135     -0.2867
     85  CB        -4.0910   -9.6920   25.6480 C.3   135  ALA135      0.0290
     86  N         -9.2570  -11.2360   22.0850 N.3   139  SER139     -0.1217
     87  CA        -8.7040  -12.5240   22.4510 C.3   139  SER139      0.1889
     88  C         -9.4230  -13.1230   23.6850 C.2   139  SER139      0.2288
     89  O         -9.5860  -14.3510   23.7880 O.2   139  SER139     -0.2866
     90  CB        -7.1880  -12.3910   22.6690 C.3   139  SER139      0.2089
     91  OG        -6.9080  -11.4010   23.6410 O.3   139  SER139     -0.2183
     92  N        -11.2280  -16.8940   23.6230 N.3   143  HIS143     -0.1241
     93  CA       -10.9060  -17.8730   24.6690 C.3   143  HIS143      0.1621
     94  C        -12.1280  -18.3570   25.4220 C.2   143  HIS143      0.2264
     95  O        -12.2900  -19.5670   25.6180 O.2   143  HIS143     -0.2867
     96  CB        -9.8010  -17.3580   25.6260 C.3   143  HIS143      0.0745
     97  CG        -8.4180  -17.4840   25.0590 C.ar  143  HIS143      0.0817
     98  ND1       -7.8380  -18.7000   24.7870 N.ar  143  HIS143     -0.2268
     99  CD2       -7.4910  -16.5510   24.7400 C.ar  143  HIS143      0.1154
    100  CE1       -6.6190  -18.5140   24.3110 C.ar  143  HIS143      0.1986
    101  NE2       -6.3840  -17.2180   24.2710 N.ar  143  HIS143     -0.2212
    102  N         -5.9870  -17.3550   17.6090 N.3   181  GLN181     -0.1231
    103  CA        -4.7760  -17.7070   18.3370 C.3   181  GLN181      0.1698
    104  C         -4.5400  -19.1890   18.1360 C.2   181  GLN181      0.2592
    105  O         -5.4970  -19.9590   17.9500 O.2   181  GLN181     -0.2718
    106  CB        -4.9180  -17.4500   19.8450 C.3   181  GLN181      0.0381
    107  CG        -5.4880  -16.0570   20.2490 C.3   181  GLN181      0.0905
    108  CD        -6.9960  -16.0950   20.5230 C.2   181  GLN181      0.2608
    109  OE1       -7.7830  -16.4010   19.6270 O.2   181  GLN181     -0.2717
    110  NE2       -7.4020  -15.7770   21.7610 N.am  181  GLN181     -0.0878
    111  N         -3.2710  -19.5820   18.1640 N.am  182  GLU182     -0.1979
    112  CA        -2.9080  -20.9900   18.2170 C.3   182  GLU182      0.1602
    113  C         -3.5330  -21.6290   19.4540 C.2   182  GLU182      0.2287
    114  O         -3.6430  -20.9890   20.5300 O.2   182  GLU182     -0.2864
    115  CB        -1.3970  -21.1640   18.2500 C.3   182  GLU182      0.0415
    116  CG        -0.6600  -20.6480   17.0110 C.3   182  GLU182      0.1163
    117  CD        -0.3490  -19.1500   17.0820 C.2   182  GLU182      0.3649
    118  OE1       -0.5650  -18.5240   18.1450 O.co2 182  GLU182     -0.2457
    119  OE2        0.1280  -18.6090   16.0640 O.co2 182  GLU182     -0.2457
    120  N          0.4220  -25.6460   27.0360 N.3   193  PHE193     -0.1241
    121  CA        -0.0380  -24.2380   26.9170 C.3   193  PHE193      0.1605
    122  C         -1.4530  -24.1470   26.3110 C.2   193  PHE193      0.2264
    123  O         -2.2770  -23.3200   26.7600 O.2   193  PHE193     -0.2867
    124  CB         1.0020  -23.3970   26.1390 C.3   193  PHE193      0.0534
    125  CG         0.8540  -21.8810   26.2920 C.ar  193  PHE193     -0.0203
    126  CD1        0.8550  -21.2720   27.5510 C.ar  193  PHE193     -0.0042
    127  CD2        0.7660  -21.0610   25.1590 C.ar  193  PHE193     -0.0042
    128  CE1        0.7460  -19.8480   27.6830 C.ar  193  PHE193     -0.0003
    129  CE2        0.6430  -19.6540   25.2790 C.ar  193  PHE193     -0.0003
    130  CZ         0.6340  -19.0570   26.5490 C.ar  193  PHE193     -0.0000
    131  N         -4.9200  -22.8270   28.3960 N.3   197  LEU197     -0.1245
    132  CA        -5.7790  -21.7470   27.8870 C.3   197  LEU197      0.1561
    133  C         -7.2000  -22.2250   27.6060 C.2   197  LEU197      0.2260
    134  O         -8.1680  -21.4720   27.7560 O.2   197  LEU197     -0.2867
    135  CB        -5.1410  -21.0780   26.6610 C.3   197  LEU197      0.0270
    136  CG        -4.3690  -19.7640   26.9230 C.3   197  LEU197      0.0019
    137  CD1       -3.8900  -19.5710   28.3760 C.3   197  LEU197      0.0001
    138  CD2       -3.2160  -19.6690   25.9870 C.3   197  LEU197      0.0001
    139  N          9.5120  -11.3000   23.2190 N.3   265  VAL265     -0.1245
    140  CA         9.8200  -12.7180   22.9870 C.3   265  VAL265      0.1561
    141  C          9.9000  -13.1160   21.5090 C.2   265  VAL265      0.2260
    142  O          9.9420  -14.3060   21.1860 O.2   265  VAL265     -0.2867
    143  CB         8.8690  -13.6710   23.7940 C.3   265  VAL265      0.0252
    144  CG1        9.1510  -13.5650   25.2970 C.3   265  VAL265      0.0019
    145  CG2        7.4080  -13.3780   23.5090 C.3   265  VAL265      0.0019
    146  N          2.0450  -14.4280   16.6060 N.3   356  PHE356     -0.1227
    147  CA         1.4920  -15.5280   17.4060 C.3   356  PHE356      0.1736
    148  C          0.4900  -15.0160   18.4150 C.2   356  PHE356      0.2596
    149  O          0.3480  -13.8050   18.5990 O.2   356  PHE356     -0.2718
    150  CB         2.6280  -16.2880   18.1320 C.3   356  PHE356      0.0547
    151  CG         3.2950  -15.4980   19.2450 C.ar  356  PHE356     -0.0202
    152  CD1        2.7230  -15.4440   20.5150 C.ar  356  PHE356     -0.0042
    153  CD2        4.5270  -14.8630   19.0380 C.ar  356  PHE356     -0.0042
    154  CE1        3.3410  -14.7160   21.5630 C.ar  356  PHE356     -0.0003
    155  CE2        5.1620  -14.1370   20.0740 C.ar  356  PHE356     -0.0003
    156  CZ         4.5650  -14.0710   21.3360 C.ar  356  PHE356     -0.0000
    157  N         -0.1990  -15.9340   19.0840 N.am  357  GLY357     -0.1942
    158  CA        -1.1380  -15.5550   20.1320 C.3   357  GLY357      0.2014
    159  C         -2.2490  -14.6740   19.6000 C.2   357  GLY357      0.2638
    160  O         -2.8830  -15.0090   18.5890 O.2   357  GLY357     -0.2714
    161  N         -2.4500  -13.5350   20.2700 N.am  358  ASP358     -0.1971
    162  CA        -3.5060  -12.5640   19.9530 C.3   358  ASP358      0.1709
    163  C         -3.1080  -11.5240   18.9040 C.2   358  ASP358      0.2293
    164  O         -3.8810  -10.6110   18.6030 O.2   358  ASP358     -0.2864
    165  CB        -3.9230  -11.7890   21.2120 C.3   358  ASP358      0.1436
    166  CG        -2.8060  -10.8850   21.7590 C.2   358  ASP358      0.3671
    167  OD1       -1.6210  -11.1920   21.5370 O.co2 358  ASP358     -0.2456
    168  OD2       -3.1120   -9.8600   22.4120 O.co2 358  ASP358     -0.2456
@<TRIPOS>BOND
     1   119   117   ar
     2   146   147    1
     3   116   117    1
     4   116   115    1
     5   117   118   ar
     6   147   150    1
     7   147   148    1
     8   102   103    1
     9   105   104    2
    10   150   151    1
    11   104   111   am
    12   104   103    1
    13   111   112    1
    14   112   115    1
    15   112   113    1
    16   103   106    1
    17   148   149    2
    18   148   157   am
    19   160   159    2
    20   164   163    2
    21   163   162    1
    22   153   151   ar
    23   153   155   ar
    24   157   158    1
    25   151   152   ar
    26   113   114    2
    27   159   158    1
    28   159   161   am
    29   109   108    2
    30   106   107    1
    31   162   161    1
    32   162   165    1
    33   155   156   ar
    34   107   108    1
    35   152   154   ar
    36   108   110   am
    37   142   141    2
    38   165   166    1
    39   156   154   ar
    40   141   140    1
    41   167   166   ar
    42   166   168   ar
    43    86    87    1
    44    87    90    1
    45    87    88    1
    46    90    91    1
    47   140   139    1
    48   140   143    1
    49    47    45   am
    50   145   143    1
    51    92    93    1
    52    88    89    2
    53    45    46    2
    54    45    44    1
    55   143   144    1
    56    44    43    1
    57   101   100   ar
    58   101    99   ar
    59   100    98   ar
    60    93    94    1
    61    93    96    1
    62    39    40    1
    63    99    97   ar
    64    98    97   ar
    65    97    96    1
    66   127   129   ar
    67   127   125   ar
    68   129   130   ar
    69    94    95    2
    70    43    40    1
    71    85    82    1
    72    40    41    1
    73   138   136    1
    74    83    82    1
    75    83    84    2
    76   124   125    1
    77   124   121    1
    78   125   126   ar
    79   122   123    2
    80   122   121    1
    81    78    80   ar
    82    78    76   ar
    83    82    81    1
    84   130   128   ar
    85   135   136    1
    86   135   132    1
    87    75    76   ar
    88    75    73   ar
    89   121   120    1
    90   136   137    1
    91    41    42    2
    92    80    79   ar
    93    76    74   ar
    94    27    28    1
    95    27    24    1
    96   126   128   ar
    97   133   134    2
    98   133   132    1
    99    66    65   ar
   100    66    64   ar
   101    55    53    1
   102   132   131    1
   103    73    72   ar
   104    65    63   ar
   105    64    62   ar
   106    24    25    1
   107    24    23    1
   108    79    77   ar
   109    74    72   ar
   110    74    77   ar
   111    38    36   ar
   112    38    37   ar
   113    72    71    1
   114    53    52    1
   115    25    26    2
   116    23    14   am
   117    52    54    1
   118    52    49    1
   119    36    34   ar
   120    37    35   ar
   121    63    61   ar
   122    62    61   ar
   123    48    49    1
   124    14    15    2
   125    14    13    1
   126    71    68    1
   127    61    60    1
   128    10    11   ar
   129    10     8   ar
   130    16    13    1
   131    16    17    1
   132    49    50    1
   133    11     9   ar
   134    70    69    2
   135    69    68    1
   136    34    35   ar
   137    34    33    1
   138    13    12    1
   139    18    17   ar
   140    18    20   ar
   141    50    51    2
   142    29    30    1
   143    17    19   ar
   144    68    67    1
   145     8     6   ar
   146     9     7   ar
   147    20    22   ar
   148    60    57    1
   149    30    33    1
   150    30    31    1
   151    19    21   ar
   152    57    56    1
   153    57    58    1
   154    22    21   ar
   155     6     7   ar
   156     6     5    1
   157    59    58    2
   158    31    32    2
   159     5     2    1
   160     4     3    2
   161     3     2    1
   162     2     1    1
