@<TRIPOS>MOLECULE
tmp/2c25A00.pdb
 84 83 0 0 0
SMALL
GASTEIGER

@<TRIPOS>ATOM
      1  N          1.2060  -21.9640   32.4700 N.3   103  ASN103     -0.1225
      2  CA         1.0860  -23.0950   31.5800 C.3   103  ASN103      0.1785
      3  C          2.3200  -23.0780   30.6680 C.2   103  ASN103      0.2597
      4  O          3.2020  -22.2160   30.8280 O.2   103  ASN103     -0.2718
      5  CB        -0.2220  -23.0430   30.7480 C.3   103  ASN103      0.1169
      6  CG        -0.7710  -24.4020   30.4220 C.2   103  ASN103      0.2627
      7  OD1       -0.0370  -25.3420   30.1660 O.2   103  ASN103     -0.2716
      8  ND2       -2.1150  -24.5050   30.3670 N.am  103  ASN103     -0.0877
      9  N          2.3560  -24.0490   29.7660 N.am  104  PHE104     -0.1976
     10  CA         3.5040  -24.3040   28.8680 C.3   104  PHE104      0.1639
     11  C          4.8460  -24.4240   29.6330 C.2   104  PHE104      0.2290
     12  O          5.8980  -24.0670   29.1180 O.2   104  PHE104     -0.2864
     13  CB         3.5790  -23.2060   27.8020 C.3   104  PHE104      0.0560
     14  CG         2.3470  -23.1050   26.9100 C.ar  104  PHE104     -0.0200
     15  CD1        2.2280  -23.9130   25.7900 C.ar  104  PHE104     -0.0042
     16  CD2        1.3450  -22.1810   27.1870 C.ar  104  PHE104     -0.0042
     17  CE1        1.1500  -23.7980   24.9270 C.ar  104  PHE104     -0.0003
     18  CE2        0.2330  -22.0700   26.3210 C.ar  104  PHE104     -0.0003
     19  CZ         0.1450  -22.9120   25.1990 C.ar  104  PHE104     -0.0000
     20  N          1.6790  -27.8030   33.4190 N.3   109  GLY109     -0.1210
     21  CA         1.3460  -28.4370   32.1370 C.3   109  GLY109      0.1956
     22  C          2.2340  -29.6190   31.8230 C.2   109  GLY109      0.2612
     23  O          1.9880  -30.3280   30.9060 O.2   109  GLY109     -0.2717
     24  N          3.2910  -29.8240   32.5810 N.am  110  GLY110     -0.1942
     25  CA         4.1160  -30.9990   32.3460 C.3   110  GLY110      0.2014
     26  C          4.8740  -30.9180   31.0170 C.2   110  GLY110      0.2638
     27  O          5.0860  -31.9360   30.3690 O.2   110  GLY110     -0.2714
     28  N          5.2970  -29.7100   30.6560 N.am  111  TRP111     -0.1973
     29  CA         6.0630  -29.4910   29.4220 C.3   111  TRP111      0.1640
     30  C          7.4970  -29.9570   29.5720 C.2   111  TRP111      0.2290
     31  O          8.1500  -29.7060   30.6070 O.2   111  TRP111     -0.2864
     32  CB         5.9070  -28.0380   28.9550 C.3   111  TRP111      0.0576
     33  CG         4.5020  -27.8060   28.4450 C.ar  111  TRP111      0.0006
     34  CD1        3.3860  -27.6660   29.2200 C.ar  111  TRP111      0.0946
     35  CD2        4.0340  -27.7940   27.0670 C.ar  111  TRP111      0.0152
     36  NE1        2.2730  -27.5210   28.4380 N.ar  111  TRP111     -0.2442
     37  CE2        2.6340  -27.5760   27.1110 C.ar  111  TRP111      0.0810
     38  CE3        4.6660  -27.8820   25.8030 C.ar  111  TRP111      0.0012
     39  CZ2        1.8380  -27.4800   25.9460 C.ar  111  TRP111      0.0191
     40  CZ3        3.8790  -27.8070   24.6460 C.ar  111  TRP111      0.0001
     41  CH2        2.4700  -27.6010   24.7260 C.ar  111  TRP111      0.0015
     42  N          8.3350  -31.9150   23.6380 N.3   116  HIS116     -0.1241
     43  CA         7.3970  -30.8920   23.1840 C.3   116  HIS116      0.1621
     44  C          8.1460  -29.7200   22.6120 C.2   116  HIS116      0.2264
     45  O          9.2990  -29.5200   22.9180 O.2   116  HIS116     -0.2867
     46  CB         6.5670  -30.4030   24.3690 C.3   116  HIS116      0.0745
     47  CG         5.9270  -31.5130   25.1510 C.ar  116  HIS116      0.0817
     48  ND1        6.0380  -31.6170   26.5140 N.ar  116  HIS116     -0.2268
     49  CD2        5.2130  -32.5810   24.7490 C.ar  116  HIS116      0.1154
     50  CE1        5.3990  -32.6980   26.9270 C.ar  116  HIS116      0.1986
     51  NE2        4.8880  -33.3060   25.8780 N.ar  116  HIS116     -0.2212
     52  N          2.2910  -29.9580   22.1630 N.3   135  GLY135     -0.1210
     53  CA         2.3300  -30.6450   23.4400 C.3   135  GLY135      0.1956
     54  C          2.0600  -32.1270   23.3500 C.2   135  GLY135      0.2612
     55  O          2.5250  -32.8240   22.4400 O.2   135  GLY135     -0.2717
     56  N          1.3320  -32.6150   24.3590 N.am  136  ASP136     -0.1959
     57  CA         0.9090  -34.0180   24.3820 C.3   136  ASP136      0.1840
     58  C         -0.3710  -34.2780   23.5900 C.2   136  ASP136      0.2622
     59  O         -0.3050  -35.0060   22.6090 O.2   136  ASP136     -0.2715
     60  CB         0.8780  -34.5840   25.8180 C.3   136  ASP136      0.1450
     61  CG         2.0160  -35.5250   26.0430 C.2   136  ASP136      0.3671
     62  OD1        1.7880  -36.7770   25.9600 O.co2 136  ASP136     -0.2456
     63  OD2        3.1620  -35.0410   26.1980 O.co2 136  ASP136     -0.2456
     64  N         -1.4800  -33.6450   23.9830 N.am  137  GLY137     -0.1954
     65  CA        -2.7910  -33.8040   23.3000 C.3   137  GLY137      0.1869
     66  C         -2.8670  -33.2850   21.8510 C.2   137  GLY137      0.2309
     67  O         -3.7230  -33.6960   21.0840 O.2   137  GLY137     -0.2863
     68  N         -1.5050  -26.6250   21.2540 N.3   140  TYR140     -0.1241
     69  CA        -2.1740  -25.6550   22.1210 C.3   140  TYR140      0.1605
     70  C         -1.7430  -24.2470   21.8320 C.2   140  TYR140      0.2264
     71  O         -0.5620  -23.9790   21.6060 O.2   140  TYR140     -0.2867
     72  CB        -1.8450  -25.9440   23.5810 C.3   140  TYR140      0.0534
     73  CG        -2.4550  -27.2290   24.0220 C.ar  140  TYR140     -0.0201
     74  CD1       -3.7800  -27.2630   24.4740 C.ar  140  TYR140     -0.0009
     75  CD2       -1.7340  -28.4200   23.9330 C.ar  140  TYR140     -0.0009
     76  CE1       -4.3580  -28.4470   24.8480 C.ar  140  TYR140      0.0417
     77  CE2       -2.2950  -29.6180   24.3040 C.ar  140  TYR140      0.0417
     78  CZ        -3.6150  -29.6380   24.7560 C.ar  140  TYR140      0.1957
     79  OH        -4.1750  -30.8420   25.1480 O.3   140  TYR140     -0.2866
     80  N         -4.9300  -21.5200   27.7920 N.3   153  ALA153     -0.1245
     81  CA        -4.5780  -22.3050   26.6210 C.3   153  ALA153      0.1562
     82  C         -5.7870  -23.0880   26.0730 C.2   153  ALA153      0.2260
     83  O         -6.5610  -23.6520   26.8550 O.2   153  ALA153     -0.2867
     84  CB        -3.4010  -23.2710   26.9550 C.3   153  ALA153      0.0290
@<TRIPOS>BOND
     1    67    66    2
     2    68    69    1
     3    71    70    2
     4    70    69    1
     5    66    65    1
     6    69    72    1
     7    52    53    1
     8    55    54    2
     9    59    58    2
    10    44    45    2
    11    44    43    1
    12    43    42    1
    13    43    46    1
    14    65    64    1
    15    54    53    1
    16    54    56   am
    17    72    73    1
    18    58    64   am
    19    58    57    1
    20    75    73   ar
    21    75    77   ar
    22    73    74   ar
    23    77    78   ar
    24    56    57    1
    25    46    47    1
    26    57    60    1
    27    74    76   ar
    28    40    41   ar
    29    40    38   ar
    30    41    39   ar
    31    49    47   ar
    32    49    51   ar
    33    78    76   ar
    34    78    79    1
    35    17    19   ar
    36    17    15   ar
    37    47    48   ar
    38    19    18   ar
    39    15    14   ar
    40    38    35   ar
    41    60    61    1
    42    51    50   ar
    43    39    37   ar
    44    62    61   ar
    45    61    63   ar
    46    82    81    1
    47    82    83    2
    48    18    16   ar
    49    48    50   ar
    50    81    84    1
    51    81    80    1
    52    14    16   ar
    53    14    13    1
    54    35    37   ar
    55    35    33   ar
    56    37    36   ar
    57    13    10    1
    58    36    34   ar
    59    33    32    1
    60    33    34   ar
    61    10    11    1
    62    10     9    1
    63    32    29    1
    64    12    11    2
    65    29    30    1
    66    29    28    1
    67    30    31    2
    68     9     3   am
    69     7     6    2
    70     8     6   am
    71    27    26    2
    72     6     5    1
    73    28    26   am
    74     3     4    2
    75     3     2    1
    76     5     2    1
    77    23    22    2
    78    26    25    1
    79     2     1    1
    80    22    21    1
    81    22    24   am
    82    21    20    1
    83    25    24    1
