@<TRIPOS>MOLECULE
tmp/2c25A01.pdb
 75 73 0 0 0
SMALL
GASTEIGER

@<TRIPOS>ATOM
      1  N          7.5530  -38.5290    1.2220 N.3   214  ASN214     -0.1240
      2  CA         9.0050  -38.5450    1.2300 C.3   214  ASN214      0.1653
      3  C          9.4490  -37.5520    2.3030 C.2   214  ASN214      0.2266
      4  O          8.6140  -36.9610    3.0180 O.2   214  ASN214     -0.2867
      5  CB         9.5440  -38.1760   -0.1710 C.3   214  ASN214      0.1155
      6  CG        10.8560  -38.8570   -0.5260 C.2   214  ASN214      0.2627
      7  OD1       11.7820  -38.9370    0.2800 O.2   214  ASN214     -0.2716
      8  ND2       10.9540  -39.3220   -1.7850 N.am  214  ASN214     -0.0877
      9  N         11.4810  -42.5640    2.4250 N.3   220  GLY220     -0.1210
     10  CA        12.7360  -42.1170    1.8260 C.3   220  GLY220      0.1956
     11  C         13.9490  -42.2810    2.7250 C.2   220  GLY220      0.2612
     12  O         15.0610  -41.9450    2.3370 O.2   220  GLY220     -0.2717
     13  N         13.7410  -42.7670    3.9470 N.am  221  GLY221     -0.1942
     14  CA        14.8560  -43.0100    4.8470 C.3   221  GLY221      0.2014
     15  C         15.5520  -41.7240    5.3150 C.2   221  GLY221      0.2638
     16  O         16.7480  -41.7110    5.5260 O.2   221  GLY221     -0.2714
     17  N         14.7770  -40.6670    5.5340 N.am  222  TRP222     -0.1973
     18  CA        15.3390  -39.3890    5.9900 C.3   222  TRP222      0.1640
     19  C         15.4420  -39.4390    7.5110 C.2   222  TRP222      0.2290
     20  O         14.4300  -39.6230    8.1640 O.2   222  TRP222     -0.2864
     21  CB        14.4180  -38.2420    5.5670 C.3   222  TRP222      0.0576
     22  CG        14.4590  -37.9650    4.1250 C.ar  222  TRP222      0.0006
     23  CD1       13.8540  -38.7000    3.1230 C.ar  222  TRP222      0.0946
     24  CD2       15.1170  -36.8790    3.4770 C.ar  222  TRP222      0.0152
     25  NE1       14.1140  -38.1460    1.9050 N.ar  222  TRP222     -0.2442
     26  CE2       14.8920  -37.0240    2.0920 C.ar  222  TRP222      0.0810
     27  CE3       15.8950  -35.7960    3.9290 C.ar  222  TRP222      0.0012
     28  CZ2       15.4080  -36.1330    1.1630 C.ar  222  TRP222      0.0191
     29  CZ3       16.4030  -34.9420    3.0110 C.ar  222  TRP222      0.0001
     30  CH2       16.1580  -35.0900    1.6500 C.ar  222  TRP222      0.0015
     31  N         20.1210  -36.1590    7.7970 N.3   227  HIS227     -0.1241
     32  CA        19.4290  -35.5530    6.6540 C.3   227  HIS227      0.1621
     33  C         18.5310  -34.3880    7.0890 C.2   227  HIS227      0.2264
     34  O         17.3090  -34.5090    7.1320 O.2   227  HIS227     -0.2867
     35  CB        18.5730  -36.5730    5.9160 C.3   227  HIS227      0.0745
     36  CG        19.2660  -37.8820    5.6850 C.ar  227  HIS227      0.0817
     37  ND1       18.7990  -39.0600    6.2110 N.ar  227  HIS227     -0.2268
     38  CD2       20.3680  -38.1930    4.9730 C.ar  227  HIS227      0.1154
     39  CE1       19.6040  -40.0480    5.8510 C.ar  227  HIS227      0.1986
     40  NE2       20.5500  -39.5530    5.0760 N.ar  227  HIS227     -0.2212
     41  N         19.7280  -34.5510    1.6120 N.3   246  GLY246     -0.1210
     42  CA        19.6400  -36.0030    1.6640 C.3   246  GLY246      0.1956
     43  C         20.9750  -36.6660    1.3940 C.2   246  GLY246      0.2612
     44  O         22.0110  -36.1390    1.6990 O.2   246  GLY246     -0.2717
     45  N         20.9120  -37.8480    0.7920 N.am  247  VAL247     -0.1965
     46  CA        22.1050  -38.5950    0.5890 C.3   247  VAL247      0.1727
     47  C         22.8270  -38.1140   -0.6890 C.2   247  VAL247      0.2616
     48  O         23.9560  -37.6550   -0.6210 O.2   247  VAL247     -0.2715
     49  CB        21.8000  -40.1110    0.6820 C.3   247  VAL247      0.0290
     50  CG1       23.0600  -40.9160    0.3240 C.3   247  VAL247      0.0023
     51  CG2       21.3040  -40.4610    2.0910 C.3   247  VAL247      0.0023
     52  N         22.1600  -38.1360   -1.8350 N.am  248  ALA248     -0.1977
     53  CA        22.8200  -37.7870   -3.0520 C.3   248  ALA248      0.1597
     54  C         23.1000  -36.2490   -3.1070 C.2   248  ALA248      0.2287
     55  O         24.0050  -35.7900   -3.7720 O.2   248  ALA248     -0.2864
     56  CB        22.0120  -38.2190   -4.1600 C.3   248  ALA248      0.0319
     57  N         17.2680  -32.2670   -2.3490 N.3   251  TYR251     -0.1241
     58  CA        15.9940  -32.5820   -2.9310 C.3   251  TYR251      0.1605
     59  C         15.0250  -31.4990   -2.5250 C.2   251  TYR251      0.2264
     60  O         15.0220  -31.0290   -1.3580 O.2   251  TYR251     -0.2867
     61  CB        15.4760  -33.9080   -2.3790 C.3   251  TYR251      0.0534
     62  CG        16.2530  -35.0830   -2.8370 C.ar  251  TYR251     -0.0201
     63  CD1       15.8530  -35.7980   -3.9650 C.ar  251  TYR251     -0.0009
     64  CD2       17.4070  -35.4890   -2.1580 C.ar  251  TYR251     -0.0009
     65  CE1       16.5770  -36.9050   -4.4160 C.ar  251  TYR251      0.0417
     66  CE2       18.1400  -36.6310   -2.6010 C.ar  251  TYR251      0.0417
     67  CZ        17.6950  -37.3180   -3.7400 C.ar  251  TYR251      0.1957
     68  OH        18.4030  -38.4180   -4.1930 O.3   251  TYR251     -0.2866
     69  N          9.1050  -34.9720   -5.8680 N.3   264  VAL264     -0.1245
     70  CA        10.3960  -34.7510   -5.2320 C.3   264  VAL264      0.1561
     71  C         11.4960  -34.8250   -6.3020 C.2   264  VAL264      0.2260
     72  O         11.5720  -35.7910   -7.0600 O.2   264  VAL264     -0.2867
     73  CB        10.5870  -35.7680   -4.1090 C.3   264  VAL264      0.0252
     74  CG1       11.9770  -35.6240   -3.4380 C.3   264  VAL264      0.0019
     75  CG2        9.4050  -35.6480   -3.1080 C.3   264  VAL264      0.0019
@<TRIPOS>BOND
     1    72    71    2
     2    71    70    1
     3    69    70    1
     4    70    73    1
     5    65    63   ar
     6    65    67   ar
     7    68    67    1
     8    56    53    1
     9    73    74    1
    10    73    75    1
    11    63    62   ar
    12    55    54    2
    13    67    66   ar
    14    54    53    1
    15    53    52    1
    16    58    59    1
    17    58    61    1
    18    58    57    1
    19    62    61    1
    20    62    64   ar
    21    66    64   ar
    22    59    60    2
    23    52    47   am
    24     8     6   am
    25    47    48    2
    26    47    46    1
    27     6     5    1
    28     6     7    2
    29     5     2    1
    30    50    49    1
    31    46    49    1
    32    46    45    1
    33    49    51    1
    34    45    43   am
    35    28    30   ar
    36    28    26   ar
    37     1     2    1
    38     2     3    1
    39    43    42    1
    40    43    44    2
    41    41    42    1
    42    30    29   ar
    43    10     9    1
    44    10    11    1
    45    25    26   ar
    46    25    23   ar
    47    26    24   ar
    48     3     4    2
    49    12    11    2
    50    11    13   am
    51    29    27   ar
    52    23    22   ar
    53    24    27   ar
    54    24    22   ar
    55    13    14    1
    56    22    21    1
    57    14    15    1
    58    38    40   ar
    59    38    36   ar
    60    40    39   ar
    61    15    16    2
    62    15    17   am
    63    17    18    1
    64    21    18    1
    65    36    35    1
    66    36    37   ar
    67    39    37   ar
    68    35    32    1
    69    18    19    1
    70    32    33    1
    71    32    31    1
    72    33    34    2
    73    19    20    2
