@<TRIPOS>MOLECULE
tmp/2c25A02.pdb
 97 97 0 0 0
SMALL
GASTEIGER

@<TRIPOS>ATOM
      1  N         -5.9180  -31.3340   17.4540 N.3   158  ASN158     -0.1225
      2  CA        -5.6060  -32.5990   18.0860 C.3   158  ASN158      0.1785
      3  C         -4.7110  -33.4450   17.1740 C.2   158  ASN158      0.2597
      4  O         -4.9800  -34.5970   16.8830 O.2   158  ASN158     -0.2718
      5  CB        -6.9060  -33.3680   18.4590 C.3   158  ASN158      0.1169
      6  CG        -7.7020  -33.8020   17.2280 C.2   158  ASN158      0.2627
      7  OD1       -7.7420  -33.0940   16.2030 O.2   158  ASN158     -0.2716
      8  ND2       -8.3450  -34.9720   17.3250 N.am  158  ASN158     -0.0877
      9  N         -3.5990  -32.8700   16.7360 N.am  159  ASN159     -0.1960
     10  CA        -2.6250  -33.5640   15.9490 C.3   159  ASN159      0.1819
     11  C         -1.2810  -32.8300   16.1960 C.2   159  ASN159      0.2621
     12  O         -1.2810  -31.7340   16.8120 O.2   159  ASN159     -0.2715
     13  CB        -3.0300  -33.5580   14.4710 C.3   159  ASN159      0.1195
     14  CG        -2.5170  -34.7330   13.7090 C.2   159  ASN159      0.2630
     15  OD1       -1.6260  -35.4390   14.1530 O.2   159  ASN159     -0.2716
     16  ND2       -3.1000  -34.9700   12.5300 N.am  159  ASN159     -0.0877
     17  N         -0.2160  -33.4670   15.7220 N.am  160  PHE160     -0.1974
     18  CA         1.1800  -32.9990   15.8260 C.3   160  PHE160      0.1639
     19  C          1.6890  -33.0020   17.2720 C.2   160  PHE160      0.2290
     20  O          2.6660  -32.3100   17.6030 O.2   160  PHE160     -0.2864
     21  CB         1.3180  -31.6250   15.1570 C.3   160  PHE160      0.0560
     22  CG         0.9290  -31.6400   13.7260 C.ar  160  PHE160     -0.0200
     23  CD1        1.7960  -32.1080   12.7750 C.ar  160  PHE160     -0.0042
     24  CD2       -0.3140  -31.1830   13.3290 C.ar  160  PHE160     -0.0042
     25  CE1        1.4320  -32.1420   11.4240 C.ar  160  PHE160     -0.0003
     26  CE2       -0.7110  -31.2350   11.9670 C.ar  160  PHE160     -0.0003
     27  CZ         0.1550  -31.6750   11.0320 C.ar  160  PHE160     -0.0000
     28  N         -0.0490  -38.2670   19.3640 N.3   164  GLN164     -0.1231
     29  CA        -0.2730  -38.6970   18.0050 C.3   164  GLN164      0.1698
     30  C          0.9860  -39.3170   17.4140 C.2   164  GLN164      0.2593
     31  O          1.0420  -39.5890   16.2230 O.2   164  GLN164     -0.2718
     32  CB        -0.7890  -37.5250   17.1630 C.3   164  GLN164      0.0381
     33  CG        -2.1680  -37.0150   17.5540 C.3   164  GLN164      0.0905
     34  CD        -2.1270  -35.9350   18.6090 C.2   164  GLN164      0.2608
     35  OE1       -1.2580  -35.0630   18.5890 O.2   164  GLN164     -0.2717
     36  NE2       -3.0880  -35.9600   19.5180 N.am  164  GLN164     -0.0878
     37  N          2.0030  -39.5390   18.2550 N.am  165  GLY165     -0.1942
     38  CA         3.1970  -40.2560   17.8520 C.3   165  GLY165      0.2014
     39  C          4.3910  -39.3950   17.4020 C.2   165  GLY165      0.2638
     40  O          5.4160  -39.9150   16.9170 O.2   165  GLY165     -0.2714
     41  N          4.2900  -38.0890   17.6150 N.am  166  TRP166     -0.1973
     42  CA         5.3430  -37.1590   17.1090 C.3   166  TRP166      0.1640
     43  C          6.5530  -37.1600   18.0470 C.2   166  TRP166      0.2290
     44  O          6.3990  -37.0530   19.2830 O.2   166  TRP166     -0.2864
     45  CB         4.7420  -35.7560   16.8590 C.3   166  TRP166      0.0576
     46  CG         3.8130  -35.7890   15.6710 C.ar  166  TRP166      0.0006
     47  CD1        2.5300  -36.2580   15.6300 C.ar  166  TRP166      0.0946
     48  CD2        4.1280  -35.3810   14.3300 C.ar  166  TRP166      0.0152
     49  NE1        2.0220  -36.1680   14.3540 N.ar  166  TRP166     -0.2442
     50  CE2        2.9850  -35.6270   13.5340 C.ar  166  TRP166      0.0810
     51  CE3        5.2640  -34.8110   13.7290 C.ar  166  TRP166      0.0012
     52  CZ2        2.9530  -35.3400   12.1670 C.ar  166  TRP166      0.0191
     53  CZ3        5.2310  -34.5420   12.3610 C.ar  166  TRP166      0.0001
     54  CH2        4.0860  -34.7830   11.6100 C.ar  166  TRP166      0.0015
     55  N         11.0340  -36.8720   13.7870 N.3   171  HIS171     -0.1241
     56  CA        10.1140  -36.0150   13.0610 C.3   171  HIS171      0.1621
     57  C         10.4450  -34.5480   13.2170 C.2   171  HIS171      0.2264
     58  O         11.1200  -34.1680   14.1580 O.2   171  HIS171     -0.2867
     59  CB         8.7300  -36.2260   13.6250 C.3   171  HIS171      0.0745
     60  CG         8.3190  -37.6660   13.6320 C.ar  171  HIS171      0.0817
     61  ND1        7.7520  -38.2770   14.7300 N.ar  171  HIS171     -0.2268
     62  CD2        8.4190  -38.6190   12.6740 C.ar  171  HIS171      0.1154
     63  CE1        7.5000  -39.5460   14.4280 C.ar  171  HIS171      0.1986
     64  NE2        7.8850  -39.7730   13.1830 N.ar  171  HIS171     -0.2212
     65  N          6.2650  -36.1490    9.2710 N.3   190  GLY190     -0.1210
     66  CA         5.9220  -37.2510   10.1430 C.3   190  GLY190      0.1956
     67  C          6.6470  -38.5500    9.8630 C.2   190  GLY190      0.2612
     68  O          7.7760  -38.6160    9.3320 O.2   190  GLY190     -0.2717
     69  N          5.9880  -39.6290   10.2660 N.am  191  GLU191     -0.1965
     70  CA         6.6120  -40.9290   10.1520 C.3   191  GLU191      0.1733
     71  C          6.6480  -41.3250    8.6880 C.2   191  GLU191      0.2616
     72  O          7.6580  -41.7330    8.1950 O.2   191  GLU191     -0.2715
     73  CB         5.8350  -41.9530   11.0060 C.3   191  GLU191      0.0429
     74  CG         6.4460  -43.3170   11.0590 C.3   191  GLU191      0.1163
     75  CD         7.7740  -43.4040   11.8170 C.2   191  GLU191      0.3649
     76  OE1        8.0390  -42.6230   12.7700 O.co2 191  GLU191     -0.2457
     77  OE2        8.5500  -44.2980   11.4460 O.co2 191  GLU191     -0.2457
     78  N          5.5250  -41.1540    8.0060 N.am  192  ASN192     -0.1972
     79  CA         5.3780  -41.5610    6.6180 C.3   192  ASN192      0.1688
     80  C          4.9860  -40.4820    5.5890 C.2   192  ASN192      0.2292
     81  O          5.1350  -40.7170    4.4030 O.2   192  ASN192     -0.2864
     82  CB         4.3590  -42.6960    6.5700 C.3   192  ASN192      0.1181
     83  CG         4.8170  -43.9140    7.3310 C.2   192  ASN192      0.2629
     84  OD1        5.9660  -44.3520    7.1890 O.2   192  ASN192     -0.2716
     85  ND2        3.9200  -44.4750    8.1590 N.am  192  ASN192     -0.0877
     86  N          2.8820  -33.5140    6.3000 N.3   195  TYR195     -0.1241
     87  CA         1.5300  -32.9670    6.4280 C.3   195  TYR195      0.1605
     88  C          1.5150  -31.4670    6.5590 C.2   195  TYR195      0.2264
     89  O          2.4700  -30.8900    7.1280 O.2   195  TYR195     -0.2867
     90  CB         0.8980  -33.4400    7.7360 C.3   195  TYR195      0.0534
     91  CG         0.7630  -34.8930    7.8170 C.ar  195  TYR195     -0.0201
     92  CD1       -0.3690  -35.5250    7.3250 C.ar  195  TYR195     -0.0009
     93  CD2        1.7820  -35.6590    8.3510 C.ar  195  TYR195     -0.0009
     94  CE1       -0.4730  -36.8980    7.3750 C.ar  195  TYR195      0.0417
     95  CE2        1.6920  -36.9930    8.3960 C.ar  195  TYR195      0.0417
     96  CZ         0.5530  -37.6100    7.9050 C.ar  195  TYR195      0.1957
     97  OH         0.4860  -38.9650    7.9850 O.3   195  TYR195     -0.2866
@<TRIPOS>BOND
     1    81    80    2
     2    80    79    1
     3    86    87    1
     4    87    88    1
     5    87    90    1
     6    88    89    2
     7    82    79    1
     8    82    83    1
     9    79    78    1
    10    84    83    2
    11    92    94   ar
    12    92    91   ar
    13    83    85   am
    14    94    96   ar
    15    90    91    1
    16    91    93   ar
    17    96    97    1
    18    96    95   ar
    19    78    71   am
    20    72    71    2
    21    93    95   ar
    22    71    70    1
    23    65    66    1
    24    68    67    2
    25    67    66    1
    26    67    69   am
    27    70    69    1
    28    70    73    1
    29    73    74    1
    30    27    25   ar
    31    27    26   ar
    32    74    75    1
    33    25    23   ar
    34    77    75   ar
    35    54    52   ar
    36    54    53   ar
    37    75    76   ar
    38    26    24   ar
    39    52    50   ar
    40    53    51   ar
    41    16    14   am
    42    62    64   ar
    43    62    60   ar
    44    23    22   ar
    45    56    57    1
    46    56    59    1
    47    56    55    1
    48    64    63   ar
    49    57    58    2
    50    24    22   ar
    51    50    48   ar
    52    50    49   ar
    53    59    60    1
    54    60    61   ar
    55    14    15    2
    56    14    13    1
    57    22    21    1
    58    51    48   ar
    59    48    46   ar
    60    49    47   ar
    61    63    61   ar
    62    13    10    1
    63    21    18    1
    64    47    46   ar
    65    46    45    1
    66    17    18    1
    67    17    11   am
    68    18    19    1
    69    10    11    1
    70    10     9    1
    71    11    12    2
    72     7     6    2
    73    31    30    2
    74     9     3   am
    75    45    42    1
    76     4     3    2
    77    40    39    2
    78    42    41    1
    79    42    43    1
    80    32    33    1
    81    32    29    1
    82     3     2    1
    83     6     8   am
    84     6     5    1
    85    19    20    2
    86    39    41   am
    87    39    38    1
    88    30    29    1
    89    30    37   am
    90     1     2    1
    91    33    34    1
    92    38    37    1
    93    29    28    1
    94    43    44    2
    95     2     5    1
    96    35    34    2
    97    34    36   am
