@<TRIPOS>MOLECULE
tmp/2c25B01.pdb
 94 93 0 0 0
SMALL
GASTEIGER

@<TRIPOS>ATOM
      1  N         38.3890   16.4520   22.3280 N.3   325  ASN325     -0.1240
      2  CA        38.4550   16.4240   20.8700 C.3   325  ASN325      0.1653
      3  C         37.1950   17.0580   20.3080 C.2   325  ASN325      0.2266
      4  O         36.3820   17.5490   21.0850 O.2   325  ASN325     -0.2867
      5  CB        38.6220   15.0080   20.3510 C.3   325  ASN325      0.1155
      6  CG        39.6480   14.9250   19.2620 C.2   325  ASN325      0.2627
      7  OD1       39.6250   15.6960   18.2920 O.2   325  ASN325     -0.2716
      8  ND2       40.5800   14.0050   19.4180 N.am  325  ASN325     -0.0877
      9  N         41.7740   21.0380   18.1570 N.3   330  GLN330     -0.1231
     10  CA        42.0560   19.8230   17.3960 C.3   330  GLN330      0.1698
     11  C         41.7940   19.9950   15.8930 C.2   330  GLN330      0.2593
     12  O         41.7980   19.0080   15.1190 O.2   330  GLN330     -0.2718
     13  CB        41.2500   18.6500   17.9530 C.3   330  GLN330      0.0381
     14  CG        41.6040   18.3080   19.4040 C.3   330  GLN330      0.0905
     15  CD        40.8540   19.1410   20.4300 C.2   330  GLN330      0.2608
     16  OE1       39.6450   19.3470   20.3260 O.2   330  GLN330     -0.2717
     17  NE2       41.5660   19.5910   21.4530 N.am  330  GLN330     -0.0878
     18  N         41.5740   21.2480   15.4920 N.am  331  GLY331     -0.1942
     19  CA        41.4710   21.6080   14.0890 C.3   331  GLY331      0.2014
     20  C         40.0730   21.6080   13.5040 C.2   331  GLY331      0.2638
     21  O         39.9070   21.8170   12.2900 O.2   331  GLY331     -0.2714
     22  N         39.0790   21.3480   14.3510 N.am  332  TRP332     -0.1973
     23  CA        37.6850   21.3200   13.9010 C.3   332  TRP332      0.1640
     24  C         37.2540   22.7460   13.6050 C.2   332  TRP332      0.2290
     25  O         37.5480   23.6720   14.3600 O.2   332  TRP332     -0.2864
     26  CB        36.7700   20.6500   14.9400 C.3   332  TRP332      0.0576
     27  CG        37.0460   19.2160   15.0500 C.ar  332  TRP332      0.0006
     28  CD1       38.0580   18.6390   15.7310 C.ar  332  TRP332      0.0946
     29  CD2       36.3250   18.1490   14.4050 C.ar  332  TRP332      0.0152
     30  NE1       38.0300   17.2810   15.5520 N.ar  332  TRP332     -0.2442
     31  CE2       36.9680   16.9490   14.7500 C.ar  332  TRP332      0.0810
     32  CE3       35.2000   18.1010   13.5790 C.ar  332  TRP332      0.0012
     33  CZ2       36.5080   15.6930   14.3230 C.ar  332  TRP332      0.0191
     34  CZ3       34.7560   16.8470   13.1310 C.ar  332  TRP332      0.0001
     35  CH2       35.4080   15.6660   13.5140 C.ar  332  TRP332      0.0015
     36  N         33.6770   21.3610    8.9430 N.3   337  HIS337     -0.1241
     37  CA        33.5300   20.0400    9.5590 C.3   337  HIS337      0.1621
     38  C         32.2030   19.9270   10.3430 C.2   337  HIS337      0.2264
     39  O         32.1580   20.2910   11.5090 O.2   337  HIS337     -0.2867
     40  CB        34.7350   19.7190   10.4900 C.3   337  HIS337      0.0745
     41  CG        36.0760   19.8420    9.8240 C.ar  337  HIS337      0.0817
     42  ND1       37.1220   20.5480   10.3850 N.ar  337  HIS337     -0.2268
     43  CD2       36.5370   19.3640    8.6450 C.ar  337  HIS337      0.1154
     44  CE1       38.1720   20.4890    9.5810 C.ar  337  HIS337      0.1986
     45  NE2       37.8450   19.7860    8.5160 N.ar  337  HIS337     -0.2212
     46  N         35.1120   14.9690    9.9150 N.3   356  GLY356     -0.1210
     47  CA        36.4040   15.6400   10.0860 C.3   356  GLY356      0.1956
     48  C         37.1450   15.9600    8.8030 C.2   356  GLY356      0.2612
     49  O         36.6240   15.8440    7.6980 O.2   356  GLY356     -0.2717
     50  N         38.4040   16.3450    8.9770 N.am  357  GLU357     -0.1965
     51  CA        39.2890   16.6090    7.8620 C.3   357  GLU357      0.1733
     52  C         39.5390   15.3880    7.0400 C.2   357  GLU357      0.2616
     53  O         39.4980   15.4610    5.8390 O.2   357  GLU357     -0.2715
     54  CB        40.6370   17.1370    8.3830 C.3   357  GLU357      0.0429
     55  CG        41.5660   17.6060    7.2720 C.3   357  GLU357      0.1163
     56  CD        41.0960   18.8860    6.5770 C.2   357  GLU357      0.3649
     57  OE1       40.1710   19.5640    7.0670 O.co2 357  GLU357     -0.2457
     58  OE2       41.6670   19.2120    5.5190 O.co2 357  GLU357     -0.2457
     59  N         39.8270   14.2680    7.6910 N.am  358  ASN358     -0.1958
     60  CA        40.1140   13.0050    6.9980 C.3   358  ASN358      0.1819
     61  C         39.2120   11.8070    7.3350 C.2   358  ASN358      0.2622
     62  O         39.1980   10.8080    6.6130 O.2   358  ASN358     -0.2715
     63  CB        41.5750   12.6230    7.2900 C.3   358  ASN358      0.1195
     64  CG        42.5470   13.6860    6.8210 C.2   358  ASN358      0.2630
     65  OD1       43.1210   14.4280    7.6340 O.2   358  ASN358     -0.2716
     66  ND2       42.7090   13.7980    5.4950 N.am  358  ASN358     -0.0877
     67  N         38.4760   11.8940    8.4320 N.am  359  SER359     -0.1950
     68  CA        37.6490   10.7900    8.9030 C.3   359  SER359      0.1924
     69  C         36.3460   11.3090    9.4750 C.2   359  SER359      0.2314
     70  O         36.2560   12.4410    9.9490 O.2   359  SER359     -0.2863
     71  CB        38.3580   10.0000   10.0290 C.3   359  SER359      0.2116
     72  OG        39.6330    9.4740    9.6460 O.3   359  SER359     -0.2180
     73  N         34.4290   10.8520   12.7010 N.3   361  TRP361     -0.1241
     74  CA        34.6930   10.4560   14.0610 C.3   361  TRP361      0.1605
     75  C         33.3950   10.4160   14.8920 C.2   361  TRP361      0.2264
     76  O         32.4970   11.2520   14.7220 O.2   361  TRP361     -0.2867
     77  CB        35.6790   11.4400   14.7010 C.3   361  TRP361      0.0550
     78  CG        37.0070   11.5580   14.0340 C.ar  361  TRP361      0.0003
     79  CD1       37.3640   12.4150   13.0340 C.ar  361  TRP361      0.0946
     80  CD2       38.1820   10.7770   14.3360 C.ar  361  TRP361      0.0152
     81  NE1       38.6950   12.2240   12.7050 N.ar  361  TRP361     -0.2442
     82  CE2       39.2140   11.2270   13.4920 C.ar  361  TRP361      0.0810
     83  CE3       38.4570    9.7620   15.2560 C.ar  361  TRP361      0.0012
     84  CZ2       40.5160   10.6950   13.5440 C.ar  361  TRP361      0.0191
     85  CZ3       39.7480    9.2290   15.3030 C.ar  361  TRP361      0.0001
     86  CH2       40.7550    9.6960   14.4400 C.ar  361  TRP361      0.0015
     87  N         37.1420    8.7890   21.4910 N.3   374  ILE374     -0.1245
     88  CA        36.8220    9.0640   20.1080 C.3   374  ILE374      0.1561
     89  C         37.0230    7.7780   19.2600 C.2   374  ILE374      0.2260
     90  O         37.9470    6.9700   19.5180 O.2   374  ILE374     -0.2867
     91  CB        37.6620   10.2650   19.5940 C.3   374  ILE374      0.0252
     92  CG1       36.9980   10.9340   18.3910 C.3   374  ILE374      0.0019
     93  CG2       39.0710    9.8190   19.3000 C.3   374  ILE374      0.0019
     94  CD1       37.8480   11.9330   17.6410 C.3   374  ILE374      0.0001
@<TRIPOS>BOND
     1    66    64   am
     2    58    56   ar
     3    53    52    2
     4    56    57   ar
     5    56    55    1
     6    62    61    2
     7    64    63    1
     8    64    65    2
     9    60    63    1
    10    60    61    1
    11    60    59    1
    12    52    59   am
    13    52    51    1
    14    55    54    1
    15    61    67   am
    16    49    48    2
    17    51    54    1
    18    51    50    1
    19    67    68    1
    20    45    43   ar
    21    45    44   ar
    22    43    41   ar
    23    48    50   am
    24    48    47    1
    25    68    69    1
    26    68    71    1
    27    36    37    1
    28    69    70    2
    29    37    38    1
    30    37    40    1
    31    44    42   ar
    32    72    71    1
    33    41    42   ar
    34    41    40    1
    35    46    47    1
    36    38    39    2
    37    21    20    2
    38    73    74    1
    39    81    79   ar
    40    81    82   ar
    41    79    78   ar
    42    34    35   ar
    43    34    32   ar
    44    82    84   ar
    45    82    80   ar
    46    20    19    1
    47    20    22   am
    48    35    33   ar
    49    84    86   ar
    50    32    29   ar
    51    24    23    1
    52    24    25    2
    53    23    22    1
    54    23    26    1
    55    78    80   ar
    56    78    77    1
    57    74    77    1
    58    74    75    1
    59    19    18    1
    60    33    31   ar
    61    80    83   ar
    62    29    31   ar
    63    29    27   ar
    64    86    85   ar
    65    76    75    2
    66    31    30   ar
    67    26    27    1
    68    27    28   ar
    69    12    11    2
    70    83    85   ar
    71    18    11   am
    72    30    28   ar
    73    11    10    1
    74    10    13    1
    75    10     9    1
    76    94    92    1
    77    13    14    1
    78     7     6    2
    79    92    91    1
    80    89    90    2
    81    89    88    1
    82     6     8   am
    83     6     5    1
    84    93    91    1
    85    14    15    1
    86    91    88    1
    87    88    87    1
    88     3     2    1
    89     3     4    2
    90    16    15    2
    91     5     2    1
    92    15    17   am
    93     2     1    1
