@<TRIPOS>MOLECULE
tmp/2c27A01.pdb
 222 218 0 0 0
SMALL
GASTEIGER

@<TRIPOS>ATOM
      1  N          4.6430   -2.3590   -0.5940 N.3    25  ASP25      -0.1239
      2  CA         5.6850   -1.4260   -0.1380 C.3    25  ASP25       0.1674
      3  C          6.6250   -1.9550    0.9540 C.2    25  ASP25       0.2266
      4  O          7.6580   -1.3130    1.2200 O.2    25  ASP25      -0.2867
      5  CB         5.0860   -0.1230    0.4580 C.3    25  ASP25       0.1410
      6  CG         4.3680    0.7570   -0.5890 C.2    25  ASP25       0.3668
      7  OD1        4.6030    0.6220   -1.8140 O.co2  25  ASP25      -0.2456
      8  OD2        3.5470    1.6060   -0.1780 O.co2  25  ASP25      -0.2456
      9  N          1.2180    1.4520    5.3550 N.3    29  PRO29      -0.2116
     10  CA         1.0940    2.8760    5.0160 C.3    29  PRO29       0.1372
     11  C          0.4380    3.7520    6.0910 C.2    29  PRO29       0.2244
     12  O          0.6460    4.9860    6.1180 O.2    29  PRO29      -0.2868
     13  CB         0.3050    2.8440    3.7050 C.3    29  PRO29       0.0268
     14  CG        -0.6340    1.7040    3.9030 C.3    29  PRO29       0.0207
     15  CD         0.3310    0.6380    4.5010 C.3    29  PRO29       0.0892
     16  N         -2.0340    8.6540    4.9610 N.3    73  LEU73      -0.1231
     17  CA        -2.7700    8.4610    3.6990 C.3    73  LEU73       0.1693
     18  C         -2.0710    7.4550    2.8460 C.2    73  LEU73       0.2592
     19  O         -0.8920    7.1450    3.0540 O.2    73  LEU73      -0.2718
     20  CB        -2.8920    9.7800    2.9300 C.3    73  LEU73       0.0284
     21  CG        -1.5730   10.4220    2.4360 C.3    73  LEU73       0.0019
     22  CD1       -1.7140   11.1290    1.0880 C.3    73  LEU73       0.0001
     23  CD2       -1.1520   11.4290    3.5100 C.3    73  LEU73       0.0001
     24  N         -2.8360    6.8720    1.9350 N.am   74  VAL74      -0.1966
     25  CA        -2.2720    5.8310    1.0720 C.3    74  VAL74       0.1727
     26  C         -3.0210    5.8280   -0.2510 C.2    74  VAL74       0.2616
     27  O         -4.2290    6.0430   -0.2920 O.2    74  VAL74      -0.2715
     28  CB        -2.4160    4.4190    1.7520 C.3    74  VAL74       0.0290
     29  CG1       -3.8520    4.2060    2.2750 C.3    74  VAL74       0.0023
     30  CG2       -2.1490    3.2730    0.7680 C.3    74  VAL74       0.0023
     31  N         -2.2630    5.5340   -1.3000 N.am   75  VAL75      -0.1977
     32  CA        -2.8150    5.4130   -2.6510 C.3    75  VAL75       0.1596
     33  C         -2.3960    4.0050   -3.1680 C.2    75  VAL75       0.2287
     34  O         -1.2280    3.5880   -3.0490 O.2    75  VAL75      -0.2864
     35  CB        -2.1750    6.4740   -3.5740 C.3    75  VAL75       0.0276
     36  CG1       -2.7290    6.2630   -5.0480 C.3    75  VAL75       0.0022
     37  CG2       -2.5170    7.8750   -3.0920 C.3    75  VAL75       0.0022
     38  N         -2.3520    2.8430   -8.7900 N.3    79  SER79      -0.1202
     39  CA        -3.0420    4.0900   -9.1010 C.3    79  SER79       0.2020
     40  C         -2.1460    5.2790   -8.7620 C.2    79  SER79       0.2619
     41  O         -2.6150    6.3910   -8.7430 O.2    79  SER79      -0.2717
     42  CB        -4.3420    4.1960   -8.2950 C.3    79  SER79       0.2103
     43  OG        -5.2250    3.1280   -8.5920 O.3    79  SER79      -0.2182
     44  N         -0.8550    5.0270   -8.5300 N.am   80  ARG80      -0.1965
     45  CA         0.0560    6.0930   -8.1570 C.3    80  ARG80       0.1729
     46  C          0.4380    6.9430   -9.3490 C.2    80  ARG80       0.2616
     47  O          0.2670    6.4840  -10.4910 O.2    80  ARG80      -0.2715
     48  CB         1.2740    5.4790   -7.4810 C.3    80  ARG80       0.0348
     49  CG         0.9300    5.0820   -6.0290 C.3    80  ARG80       0.0492
     50  CD         2.0660    4.3540   -5.3120 C.3    80  ARG80       0.2205
     51  NE         1.5150    3.8130   -4.0430 N.pl3  80  ARG80      -0.0865
     52  CZ         2.1920    3.0340   -3.2090 C.cat  80  ARG80       0.5346
     53  NH1        1.6290    2.6030   -2.0840 N.pl3  80  ARG80       0.1354
     54  NH2        3.4280    2.6440   -3.5320 N.pl3  80  ARG80       0.1354
     55  N          0.9470    8.1490   -9.0640 N.am   81  ARG81      -0.1963
     56  CA         1.3350    9.1370  -10.0670 C.3    81  ARG81       0.1729
     57  C          0.1770    9.5800  -10.9510 C.2    81  ARG81       0.2616
     58  O          0.3870    9.8670  -12.1430 O.2    81  ARG81      -0.2715
     59  CB         2.4730    8.6000  -10.9550 C.3    81  ARG81       0.0348
     60  CG         3.6510    8.0700  -10.1850 C.3    81  ARG81       0.0492
     61  CD         4.3650    9.1440   -9.3710 C.3    81  ARG81       0.2205
     62  NE         5.0800   10.1840  -10.1460 N.pl3  81  ARG81      -0.0865
     63  CZ         6.3300   10.0710  -10.5890 C.cat  81  ARG81       0.5346
     64  NH1        6.8690   11.0750  -11.2650 N.pl3  81  ARG81       0.1354
     65  NH2        7.0340    8.9670  -10.3750 N.pl3  81  ARG81       0.1354
     66  N         -1.0310    9.6200  -10.3880 N.am   82  ARG82      -0.1963
     67  CA        -2.1990   10.1170  -11.0800 C.3    82  ARG82       0.1729
     68  C         -2.7520   11.3470  -10.3630 C.2    82  ARG82       0.2617
     69  O         -3.8470   11.8200  -10.6940 O.2    82  ARG82      -0.2715
     70  CB        -3.2490    9.0070  -11.1900 C.3    82  ARG82       0.0348
     71  CG        -2.7140    7.9440  -12.1150 C.3    82  ARG82       0.0492
     72  CD        -3.5380    6.6950  -12.2070 C.3    82  ARG82       0.2205
     73  NE        -2.9510    5.8660  -13.2600 N.pl3  82  ARG82      -0.0865
     74  CZ        -3.2880    4.6140  -13.5150 C.cat  82  ARG82       0.5346
     75  NH1       -2.6800    3.9750  -14.5050 N.pl3  82  ARG82       0.1354
     76  NH2       -4.2140    4.0050  -12.7820 N.pl3  82  ARG82       0.1354
     77  N         -1.9960   11.8300   -9.3620 N.am   83  GLY83      -0.1940
     78  CA        -2.3640   13.0330   -8.6360 C.3    83  GLY83       0.2014
     79  C         -3.2890   12.8100   -7.4400 C.2    83  GLY83       0.2639
     80  O         -3.7540   13.7740   -6.8010 O.2    83  GLY83      -0.2714
     81  N         -3.5850   11.5650   -7.1260 N.am   84  ILE84      -0.1963
     82  CA        -4.5150   11.3090   -6.0360 C.3    84  ILE84       0.1727
     83  C         -3.9150   11.7050   -4.6790 C.2    84  ILE84       0.2617
     84  O         -4.5990   12.3050   -3.8200 O.2    84  ILE84      -0.2715
     85  CB        -4.9320    9.8000   -5.9640 C.3    84  ILE84       0.0290
     86  CG1       -5.7080    9.3850   -7.2120 C.3    84  ILE84       0.0022
     87  CG2       -5.8480    9.5740   -4.7710 C.3    84  ILE84       0.0023
     88  CD1       -6.8460   10.3410   -7.4640 C.3    84  ILE84       0.0001
     89  N         -2.6660   11.3350   -4.4770 N.am   85  GLY85      -0.1940
     90  CA        -1.9820   11.6420   -3.1940 C.3    85  GLY85       0.2014
     91  C         -1.9430   13.1600   -2.9650 C.2    85  GLY85       0.2639
     92  O         -2.2540   13.6850   -1.8620 O.2    85  GLY85      -0.2714
     93  N         -1.6170   13.9020   -4.0220 N.am   86  THR86      -0.1950
     94  CA        -1.6020   15.3630   -3.9290 C.3    86  THR86       0.1897
     95  C         -3.0000   15.9110   -3.6350 C.2    86  THR86       0.2313
     96  O         -3.1790   16.8050   -2.7830 O.2    86  THR86      -0.2863
     97  CB        -1.1160   16.0100   -5.2930 C.3    86  THR86       0.1794
     98  OG1        0.2360   15.6680   -5.4780 O.3    86  THR86      -0.2208
     99  CG2       -1.2330   17.5870   -5.2470 C.3    86  THR86       0.0378
    100  N         -3.8550   15.1790    0.0570 N.3    89  ALA89      -0.1245
    101  CA        -3.0290   15.9830    0.9770 C.3    89  ALA89       0.1562
    102  C         -3.4690   17.4740    0.9330 C.2    89  ALA89       0.2260
    103  O         -3.4930   18.1560    1.9730 O.2    89  ALA89      -0.2867
    104  CB        -1.5390   15.8710    0.6150 C.3    89  ALA89       0.0290
    105  N          1.8160   15.0810    8.4900 N.3   102  PHE102     -0.1227
    106  CA         1.5320   13.8630    7.7330 C.3   102  PHE102      0.1736
    107  C          2.6030   12.8280    8.1350 C.2   102  PHE102      0.2595
    108  O          3.7780   13.1540    8.1220 O.2   102  PHE102     -0.2718
    109  CB         1.7350   14.0720    6.2310 C.3   102  PHE102      0.0547
    110  CG         0.7390   15.0060    5.6210 C.ar  102  PHE102     -0.0202
    111  CD1        1.0080   16.3560    5.5320 C.ar  102  PHE102     -0.0042
    112  CD2       -0.4340   14.5060    5.0880 C.ar  102  PHE102     -0.0042
    113  CE1        0.0980   17.2290    4.8850 C.ar  102  PHE102     -0.0003
    114  CE2       -1.3420   15.3680    4.4440 C.ar  102  PHE102     -0.0003
    115  CZ        -1.0610   16.7310    4.3440 C.ar  102  PHE102     -0.0000
    116  N          2.1980   11.5930    8.4370 N.am  103  TRP103     -0.1962
    117  CA         3.2100   10.5630    8.6990 C.3   103  TRP103      0.1771
    118  C          3.6260    9.8850    7.3700 C.2   103  TRP103      0.2619
    119  O          2.7730    9.5320    6.5440 O.2   103  TRP103     -0.2715
    120  CB         2.5860    9.4270    9.5230 C.3   103  TRP103      0.0590
    121  CG         2.6360    9.6590   11.0010 C.ar  103  TRP103      0.0006
    122  CD1        1.5800    9.6730   11.8650 C.ar  103  TRP103      0.0946
    123  CD2        3.8240    9.8300   11.7950 C.ar  103  TRP103      0.0152
    124  NE1        2.0450    9.8620   13.1710 N.ar  103  TRP103     -0.2442
    125  CE2        3.4140    9.9790   13.1300 C.ar  103  TRP103      0.0810
    126  CE3        5.1900    9.9130   11.4930 C.ar  103  TRP103      0.0012
    127  CZ2        4.3380   10.1620   14.1860 C.ar  103  TRP103      0.0191
    128  CZ3        6.1180   10.1010   12.5510 C.ar  103  TRP103      0.0001
    129  CH2        5.6760   10.2400   13.8580 C.ar  103  TRP103      0.0015
    130  N          4.9330    9.6750    7.2050 N.am  104  ALA104     -0.1963
    131  CA         5.4350    8.8820    6.0950 C.3   104  ALA104      0.1728
    132  C          6.1750    7.6990    6.8340 C.2   104  ALA104      0.2616
    133  O          7.3370    7.8190    7.2890 O.2   104  ALA104     -0.2715
    134  CB         6.4330    9.7140    5.2280 C.3   104  ALA104      0.0334
    135  N          5.4770    6.5880    7.0070 N.am  105  HIS105     -0.1973
    136  CA         6.0860    5.4480    7.7000 C.3   105  HIS105      0.1656
    137  C          7.1430    4.8200    6.8000 C.2   105  HIS105      0.2291
    138  O          6.8680    4.5450    5.5970 O.2   105  HIS105     -0.2864
    139  CB         4.9910    4.4340    8.0490 C.3   105  HIS105      0.0771
    140  CG         3.9190    5.0220    8.8940 C.ar  105  HIS105      0.0820
    141  ND1        4.1730    5.4080   10.1960 N.ar  105  HIS105     -0.2267
    142  CD2        2.6200    5.3440    8.6590 C.ar  105  HIS105      0.1154
    143  CE1        3.0850    5.9330   10.7160 C.ar  105  HIS105      0.1986
    144  NE2        2.1190    5.9060    9.8080 N.ar  105  HIS105     -0.2212
    145  N          9.5940    6.3090    2.7700 N.3   108  LEU108     -0.1231
    146  CA         9.8880    5.7550    1.4600 C.3   108  LEU108      0.1693
    147  C         10.1270    6.8230    0.4000 C.2   108  LEU108      0.2592
    148  O          9.6580    7.9660    0.5060 O.2   108  LEU108     -0.2718
    149  CB         8.7640    4.7940    1.0290 C.3   108  LEU108      0.0284
    150  CG         8.4290    3.7380    2.1010 C.3   108  LEU108      0.0019
    151  CD1        7.2570    2.8700    1.6160 C.3   108  LEU108      0.0001
    152  CD2        9.6500    2.8110    2.3220 C.3   108  LEU108      0.0001
    153  N         10.8510    6.4490   -0.6700 N.am  109  ASP109     -0.1960
    154  CA        11.1460    7.4620   -1.7140 C.3   109  ASP109      0.1825
    155  C          9.9230    8.1870   -2.2920 C.2   109  ASP109      0.2464
    156  O          9.9750    9.3850   -2.5220 O.2   109  ASP109     -0.2730
    157  CB        11.9000    6.8010   -2.8920 C.3   109  ASP109      0.1450
    158  CG        13.3160    6.4120   -2.5340 C.2   109  ASP109      0.3671
    159  OD1       13.8180    6.8220   -1.4730 O.co2 109  ASP109     -0.2456
    160  OD2       13.9410    5.6730   -3.3390 O.co2 109  ASP109     -0.2456
    161  N          8.7980    7.4610   -2.5440 N.am  110  PRO110     -0.2715
    162  CA         7.6650    8.2060   -3.0990 C.3   110  PRO110      0.1536
    163  C          7.1730    9.2730   -2.1390 C.2   110  PRO110      0.2598
    164  O          6.8300   10.3640   -2.5450 O.2   110  PRO110     -0.2715
    165  CB         6.6030    7.1200   -3.3680 C.3   110  PRO110      0.0310
    166  CG         7.3920    5.8380   -3.5290 C.3   110  PRO110      0.0237
    167  CD         8.5390    6.0190   -2.5400 C.3   110  PRO110      0.0939
    168  N          7.1170    8.9480   -0.8490 N.am  111  ALA111     -0.1978
    169  CA         6.6600    9.9430    0.0980 C.3   111  ALA111      0.1597
    170  C          7.6330   11.1370    0.1820 C.2   111  ALA111      0.2287
    171  O          7.2220   12.2970    0.3230 O.2   111  ALA111     -0.2864
    172  CB         6.5450    9.3200    1.4960 C.3   111  ALA111      0.0319
    173  N          9.4170   12.2760   -2.1220 N.3   113  ALA113     -0.1231
    174  CA         9.2540   13.0600   -3.3270 C.3   113  ALA113      0.1694
    175  C          7.9470   13.8540   -3.3110 C.2   113  ALA113      0.2593
    176  O          7.8970   14.9850   -3.7570 O.2   113  ALA113     -0.2718
    177  CB         9.3550   12.1310   -4.5560 C.3   113  ALA113      0.0304
    178  N          6.8920   13.2700   -2.7560 N.am  114  THR114     -0.1939
    179  CA         5.5880   13.9220   -2.6810 C.3   114  THR114      0.2028
    180  C          5.6670   15.0870   -1.7050 C.2   114  THR114      0.2642
    181  O          5.0650   16.1620   -1.9060 O.2   114  THR114     -0.2714
    182  CB         4.5170   12.8650   -2.2080 C.3   114  THR114      0.1808
    183  OG1        4.4340   11.8160   -3.1890 O.3   114  THR114     -0.2208
    184  CG2        3.2070   13.4600   -2.0720 C.3   114  THR114      0.0379
    185  N          6.4220   14.8880   -0.6290 N.am  115  ALA115     -0.1977
    186  CA         6.5800   15.9340    0.3570 C.3   115  ALA115      0.1597
    187  C          7.3100   17.1340   -0.2790 C.2   115  ALA115      0.2287
    188  O          6.9320   18.2820   -0.0050 O.2   115  ALA115     -0.2864
    189  CB         7.3930   15.4350    1.5820 C.3   115  ALA115      0.0319
    190  N          7.3000   17.9290   -3.5130 N.3   117  ALA117     -0.1231
    191  CA         6.4220   18.5100   -4.5170 C.3   117  ALA117      0.1694
    192  C          5.3560   19.3750   -3.8430 C.2   117  ALA117      0.2591
    193  O          4.8100   20.2970   -4.4560 O.2   117  ALA117     -0.2718
    194  CB         5.7780   17.4140   -5.3430 C.3   117  ALA117      0.0304
    195  N          5.0320   19.0800   -2.5880 N.am  118  LEU118     -0.1980
    196  CA         4.0270   19.8660   -1.8690 C.3   118  LEU118      0.1596
    197  C          4.6370   20.9770   -1.0370 C.2   118  LEU118      0.2287
    198  O          3.9100   21.7570   -0.4430 O.2   118  LEU118     -0.2864
    199  CB         3.1750   18.9840   -0.9260 C.3   118  LEU118      0.0297
    200  CG         2.1660   18.0280   -1.5580 C.3   118  LEU118      0.0022
    201  CD1        1.7050   17.0780   -0.4900 C.3   118  LEU118      0.0001
    202  CD2        0.9830   18.7900   -2.1680 C.3   118  LEU118      0.0001
    203  N          6.5280   20.5480    1.7030 N.3   120  LEU120     -0.1245
    204  CA         6.5790   20.1930    3.1240 C.3   120  LEU120      0.1561
    205  C          8.0280   19.8450    3.5660 C.2   120  LEU120      0.2260
    206  O          8.8660   19.5010    2.7400 O.2   120  LEU120     -0.2867
    207  CB         5.6790   18.9730    3.3790 C.3   120  LEU120      0.0270
    208  CG         4.2970   19.0830    2.7700 C.3   120  LEU120      0.0019
    209  CD1        3.4520   17.8440    3.1370 C.3   120  LEU120      0.0001
    210  CD2        3.6420   20.3520    3.2690 C.3   120  LEU120      0.0001
    211  N          5.8140   15.0560    8.2260 N.3   298  TYR298     -0.1241
    212  CA         6.0310   16.2340    7.3900 C.3   298  TYR298      0.1605
    213  C          5.0230   17.3300    7.6520 C.2   298  TYR298      0.2264
    214  O          3.8790   17.0490    7.9720 O.2   298  TYR298     -0.2867
    215  CB         5.8930   15.8460    5.9220 C.3   298  TYR298      0.0534
    216  CG         7.0470   15.0230    5.4360 C.ar  298  TYR298     -0.0201
    217  CD1        8.2370   15.6430    5.0290 C.ar  298  TYR298     -0.0009
    218  CD2        6.9630   13.6390    5.3390 C.ar  298  TYR298     -0.0009
    219  CE1        9.3020   14.8910    4.5320 C.ar  298  TYR298      0.0417
    220  CE2        8.0490   12.8660    4.8400 C.ar  298  TYR298      0.0417
    221  CZ         9.2080   13.5180    4.4340 C.ar  298  TYR298      0.1957
    222  OH        10.2690   12.7990    3.9150 O.3   298  TYR298     -0.2866
@<TRIPOS>BOND
     1    75    74    1
     2    74    73    2
     3    74    76    1
     4    73    72    1
     5    72    71    1
     6    58    57    2
     7    71    70    1
     8    64    63    1
     9    70    67    1
    10    67    66    1
    11    67    68    1
    12    59    60    1
    13    59    56    1
    14    57    66   am
    15    57    56    1
    16    69    68    2
    17    63    65    1
    18    63    62    2
    19    47    46    2
    20    68    77   am
    21    60    61    1
    22    62    61    1
    23    56    55    1
    24    77    78    1
    25    46    55   am
    26    46    45    1
    27    39    38    1
    28    39    40    1
    29    39    42    1
    30    40    41    2
    31    40    44   am
    32    78    79    1
    33    43    42    1
    34    44    45    1
    35    45    48    1
    36    48    49    1
    37    88    86    1
    38    79    81   am
    39    79    80    2
    40    86    85    1
    41    81    82    1
    42    82    85    1
    43    82    83    1
    44    49    50    1
    45    85    87    1
    46    98    97    1
    47   194   191    1
    48    50    51    1
    49    97    99    1
    50    97    94    1
    51    36    35    1
    52    83    89   am
    53    83    84    2
    54   177   174    1
    55   191   192    1
    56   191   190    1
    57    89    90    1
    58   193   192    2
    59    51    52    2
    60    93    94    1
    61    93    91   am
    62    94    95    1
    63   192   195   am
    64   176   175    2
    65    95    96    2
    66    35    37    1
    67    35    32    1
    68    54    52    1
    69   166   165    1
    70   166   167    1
    71   165   162    1
    72   160   158   ar
    73   174   175    1
    74   174   173    1
    75   175   178   am
    76    52    53    1
    77    90    91    1
    78   183   182    1
    79    33    34    2
    80    33    32    1
    81   162   161    1
    82   162   163    1
    83    91    92    2
    84   157   158    1
    85   157   154    1
    86   178   179    1
    87   179   182    1
    88   179   180    1
    89    32    31    1
    90   195   196    1
    91   164   163    2
    92   161   167    1
    93   161   155   am
    94   158   159   ar
    95   156   155    2
    96   155   154    1
    97   182   184    1
    98   202   200    1
    99   163   168   am
   100   181   180    2
   101   196   197    1
   102   196   199    1
   103     7     6   ar
   104   154   153    1
   105   180   185   am
   106   200   199    1
   107   200   201    1
   108    31    26   am
   109   197   198    2
   110   168   169    1
   111   153   147   am
   112   185   186    1
   113     1     2    1
   114     6     8   ar
   115     6     5    1
   116    27    26    2
   117   187   188    2
   118   187   186    1
   119    26    25    1
   120     2     5    1
   121     2     3    1
   122   100   101    1
   123   169   170    1
   124   169   172    1
   125   170   171    2
   126   186   189    1
   127   147   148    2
   128   147   146    1
   129   104   101    1
   130    30    28    1
   131   102   101    1
   132   102   103    2
   133     3     4    2
   134   149   146    1
   135   149   150    1
   136    25    28    1
   137    25    24    1
   138    22    21    1
   139   146   145    1
   140   151   150    1
   141   203   204    1
   142    28    29    1
   143    24    18   am
   144   150   152    1
   145    21    20    1
   146    21    23    1
   147   206   205    2
   148   208   209    1
   149   208   210    1
   150   208   207    1
   151    18    19    2
   152    18    17    1
   153    20    17    1
   154   204   207    1
   155   204   205    1
   156    17    16    1
   157    13    14    1
   158    13    10    1
   159    14    15    1
   160   222   221    1
   161   115   114   ar
   162   115   113   ar
   163   221   219   ar
   164   221   220   ar
   165   114   112   ar
   166    15     9    1
   167   219   217   ar
   168   220   218   ar
   169   113   111   ar
   170    10     9    1
   171    10    11    1
   172   217   216   ar
   173   112   110   ar
   174   134   131    1
   175   218   216   ar
   176   216   215    1
   177   111   110   ar
   178   138   137    2
   179   110   109    1
   180   215   212    1
   181    11    12    2
   182   131   132    1
   183   131   130    1
   184   109   106    1
   185   119   118    2
   186   137   136    1
   187   132   135   am
   188   132   133    2
   189   135   136    1
   190   130   118   am
   191   118   117    1
   192   212   213    1
   193   212   211    1
   194   213   214    2
   195   136   139    1
   196   106   107    1
   197   106   105    1
   198   139   140    1
   199   108   107    2
   200   107   116   am
   201   116   117    1
   202   142   140   ar
   203   142   144   ar
   204   117   120    1
   205   140   141   ar
   206   120   121    1
   207   144   143   ar
   208   141   143   ar
   209   121   123   ar
   210   121   122   ar
   211   126   123   ar
   212   126   128   ar
   213   123   125   ar
   214   122   124   ar
   215   128   129   ar
   216   125   124   ar
   217   125   127   ar
   218   129   127   ar
