@<TRIPOS>MOLECULE
tmp/2c27A02.pdb
 173 169 0 0 0
SMALL
GASTEIGER

@<TRIPOS>ATOM
      1  N          4.7140    9.7200   33.1500 N.3   166  ALA166     -0.1231
      2  CA         5.9100    9.5180   32.3360 C.3   166  ALA166      0.1694
      3  C          5.7900   10.1170   30.9360 C.2   166  ALA166      0.2592
      4  O          6.8010   10.5720   30.3660 O.2   166  ALA166     -0.2718
      5  CB         6.2530    8.0100   32.2230 C.3   166  ALA166      0.0304
      6  N          4.5660   10.1390   30.4240 N.am  167  PHE167     -0.1976
      7  CA         4.3310   10.6400   29.0570 C.3   167  PHE167      0.1639
      8  C          3.6240   12.0070   28.9780 C.2   167  PHE167      0.2290
      9  O          3.0370   12.3750   27.9580 O.2   167  PHE167     -0.2864
     10  CB         3.5460    9.5700   28.2590 C.3   167  PHE167      0.0560
     11  CG         4.3750    8.3350   27.9470 C.ar  167  PHE167     -0.0200
     12  CD1        4.2260    7.1590   28.6940 C.ar  167  PHE167     -0.0042
     13  CD2        5.3320    8.3720   26.8940 C.ar  167  PHE167     -0.0042
     14  CE1        5.0300    6.0160   28.3760 C.ar  167  PHE167     -0.0003
     15  CE2        6.1260    7.2570   26.6050 C.ar  167  PHE167     -0.0003
     16  CZ         5.9710    6.1010   27.3320 C.ar  167  PHE167     -0.0000
     17  N          3.4330   14.0460   25.7430 N.3   170  HIS170     -0.1241
     18  CA         3.6620   13.2280   24.5440 C.3   170  HIS170      0.1621
     19  C          2.3780   13.3570   23.7420 C.2   170  HIS170      0.2264
     20  O          1.2870   13.1250   24.2480 O.2   170  HIS170     -0.2867
     21  CB         3.9870   11.7640   24.8830 C.3   170  HIS170      0.0745
     22  CG         4.3760   10.9430   23.6700 C.ar  170  HIS170      0.0817
     23  ND1        3.4720   10.5940   22.6870 N.ar  170  HIS170     -0.2268
     24  CD2        5.5650   10.3970   23.2940 C.ar  170  HIS170      0.1154
     25  CE1        4.0840    9.8660   21.7580 C.ar  170  HIS170      0.1986
     26  NE2        5.3520    9.7290   22.1010 N.ar  170  HIS170     -0.2212
     27  N          5.2150   -0.1450   24.9330 N.3   230  VAL230     -0.1231
     28  CA         5.1840    1.0670   25.7570 C.3   230  VAL230      0.1692
     29  C          6.0920    0.7370   26.9450 C.2   230  VAL230      0.2592
     30  O          5.8980   -0.2720   27.6280 O.2   230  VAL230     -0.2718
     31  CB         3.7580    1.4780   26.3440 C.3   230  VAL230      0.0266
     32  CG1        3.9010    2.8410   27.0960 C.3   230  VAL230      0.0020
     33  CG2        2.7620    1.6900   25.1770 C.3   230  VAL230      0.0020
     34  N          7.0750    1.6030   27.1600 N.am  231  LEU231     -0.1966
     35  CA         7.9920    1.4260   28.3060 C.3   231  LEU231      0.1728
     36  C          7.9660    2.7420   29.0500 C.2   231  LEU231      0.2617
     37  O          8.2740    3.7930   28.4620 O.2   231  LEU231     -0.2715
     38  CB         9.4220    1.1540   27.8100 C.3   231  LEU231      0.0311
     39  CG        10.5210    1.2680   28.8930 C.3   231  LEU231      0.0022
     40  CD1       10.3860    0.0710   29.7950 C.3   231  LEU231      0.0001
     41  CD2       11.9530    1.2760   28.2510 C.3   231  LEU231      0.0001
     42  N          7.6260    2.7070   30.3430 N.am  232  GLY232     -0.1940
     43  CA         7.5890    3.9560   31.0670 C.3   232  GLY232      0.2014
     44  C          7.8950    3.7930   32.5550 C.2   232  GLY232      0.2638
     45  O          7.4980    2.7960   33.1800 O.2   232  GLY232     -0.2714
     46  N          8.6200    4.7750   33.0740 N.am  233  VAL233     -0.1977
     47  CA         8.9840    4.7790   34.5220 C.3   233  VAL233      0.1596
     48  C          8.4700    6.0850   35.1570 C.2   233  VAL233      0.2287
     49  O          8.5620    7.1450   34.5890 O.2   233  VAL233     -0.2864
     50  CB        10.5200    4.6430   34.6920 C.3   233  VAL233      0.0276
     51  CG1       10.9050    4.7610   36.2450 C.3   233  VAL233      0.0022
     52  CG2       10.9720    3.2730   34.1610 C.3   233  VAL233      0.0022
     53  N         12.8310    7.6330   38.1770 N.3   238  GLN238     -0.1231
     54  CA        13.6950    7.5850   37.0100 C.3   238  GLN238      0.1698
     55  C         15.1770    7.7600   37.4220 C.2   238  GLN238      0.2592
     56  O         15.4740    8.1950   38.5520 O.2   238  GLN238     -0.2718
     57  CB        13.2740    8.6630   36.0310 C.3   238  GLN238      0.0381
     58  CG        12.1340    8.2060   35.1260 C.3   238  GLN238      0.0905
     59  CD        11.6550    9.3280   34.2080 C.2   238  GLN238      0.2608
     60  OE1       12.3780   10.3040   34.0090 O.2   238  GLN238     -0.2717
     61  NE2       10.4570    9.2020   33.6520 N.am  238  GLN238     -0.0878
     62  N         16.0560    7.3930   36.4990 N.am  239  ARG239     -0.1966
     63  CA        17.5090    7.4360   36.6390 C.3   239  ARG239      0.1729
     64  C         18.0480    6.5840   37.7760 C.2   239  ARG239      0.2616
     65  O         19.0290    6.9690   38.4420 O.2   239  ARG239     -0.2715
     66  CB        17.9890    8.8810   36.8030 C.3   239  ARG239      0.0348
     67  CG        17.7750    9.7290   35.5550 C.3   239  ARG239      0.0492
     68  CD        18.1950   11.1750   35.7930 C.3   239  ARG239      0.2205
     69  NE        19.6410   11.3250   35.9900 N.pl3 239  ARG239     -0.0865
     70  CZ        20.5510   11.2370   35.0180 C.cat 239  ARG239      0.5346
     71  NH1       21.8420   11.3910   35.2960 N.pl3 239  ARG239      0.1354
     72  NH2       20.1810   11.0020   33.7650 N.pl3 239  ARG239      0.1354
     73  N         17.4020    5.4400   38.0020 N.am  240  ARG240     -0.1963
     74  CA        17.8360    4.4930   39.0200 C.3   240  ARG240      0.1729
     75  C         18.0190    3.0940   38.4370 C.2   240  ARG240      0.2617
     76  O         18.0460    2.1150   39.1840 O.2   240  ARG240     -0.2715
     77  CB        16.8310    4.4220   40.1550 C.3   240  ARG240      0.0348
     78  CG        17.1350    5.3720   41.2540 C.3   240  ARG240      0.0492
     79  CD        16.4150    6.6610   41.0860 C.3   240  ARG240      0.2205
     80  NE        15.5910    6.9030   42.2640 N.pl3 240  ARG240     -0.0865
     81  CZ        14.6040    7.7880   42.3180 C.cat 240  ARG240      0.5346
     82  NH1       14.3110    8.5350   41.2470 N.pl3 240  ARG240      0.1354
     83  NH2       13.9080    7.9150   43.4430 N.pl3 240  ARG240      0.1354
     84  N         18.1240    2.9990   37.1170 N.am  241  GLY241     -0.1940
     85  CA        18.3010    1.7090   36.4530 C.3   241  GLY241      0.2014
     86  C         17.0110    0.9130   36.1800 C.2   241  GLY241      0.2639
     87  O         17.0630   -0.1980   35.6190 O.2   241  GLY241     -0.2714
     88  N         15.8490    1.4380   36.5630 N.am  242  LEU242     -0.1963
     89  CA        14.6250    0.6560   36.3440 C.3   242  LEU242      0.1728
     90  C         14.2430    0.5040   34.8670 C.2   242  LEU242      0.2617
     91  O         13.7090   -0.5330   34.4860 O.2   242  LEU242     -0.2715
     92  CB        13.4420    1.2580   37.1230 C.3   242  LEU242      0.0311
     93  CG        13.6720    1.4160   38.6260 C.3   242  LEU242      0.0022
     94  CD1       12.3710    1.9870   39.2760 C.3   242  LEU242      0.0001
     95  CD2       14.0020    0.0590   39.2380 C.3   242  LEU242      0.0001
     96  N         14.5000    1.5290   34.0450 N.am  243  GLY243     -0.1940
     97  CA        14.1590    1.4190   32.6130 C.3   243  GLY243      0.2014
     98  C         14.9530    0.3050   31.9140 C.2   243  GLY243      0.2638
     99  O         14.4510   -0.4880   31.1150 O.2   243  GLY243     -0.2714
    100  N         16.2500    0.2620   32.2000 N.am  244  GLN244     -0.1977
    101  CA        17.1140   -0.7500   31.6200 C.3   244  GLN244      0.1601
    102  C         16.6380   -2.1370   32.0940 C.2   244  GLN244      0.2287
    103  O         16.5330   -3.0770   31.3200 O.2   244  GLN244     -0.2864
    104  CB        18.5720   -0.5770   32.0800 C.3   244  GLN244      0.0394
    105  CG        19.4730   -1.4160   31.1750 C.3   244  GLN244      0.0908
    106  CD        20.9370   -0.9640   31.1240 C.2   244  GLN244      0.2608
    107  OE1       21.2540    0.2360   31.1550 O.2   244  GLN244     -0.2717
    108  NE2       21.8320   -1.9370   31.0040 N.am  244  GLN244     -0.0878
    109  N          9.8870    1.7680   18.7170 N.3   272  TYR272     -0.1227
    110  CA         9.8840    3.0750   18.1040 C.3   272  TYR272      0.1736
    111  C         10.2870    4.0520   19.1850 C.2   272  TYR272      0.2595
    112  O          9.8700    3.9140   20.3410 O.2   272  TYR272     -0.2718
    113  CB         8.4880    3.4680   17.6400 C.3   272  TYR272      0.0548
    114  CG         8.0620    2.6710   16.4180 C.ar  272  TYR272     -0.0200
    115  CD1        7.2760    1.4870   16.5450 C.ar  272  TYR272     -0.0009
    116  CD2        8.3960    3.1210   15.1490 C.ar  272  TYR272     -0.0009
    117  CE1        6.8520    0.8170   15.4260 C.ar  272  TYR272      0.0417
    118  CE2        7.9550    2.4530   14.0430 C.ar  272  TYR272      0.0417
    119  CZ         7.1880    1.3150   14.1850 C.ar  272  TYR272      0.1957
    120  OH         6.7410    0.6980   13.0520 O.3   272  TYR272     -0.2866
    121  N         11.0640    5.0580   18.7960 N.am  273  VAL273     -0.1966
    122  CA        11.4430    6.0780   19.7490 C.3   273  VAL273      0.1727
    123  C         11.7330    7.3810   19.0000 C.2   273  VAL273      0.2616
    124  O         12.2410    7.3510   17.8970 O.2   273  VAL273     -0.2715
    125  CB        12.6560    5.6480   20.6160 C.3   273  VAL273      0.0290
    126  CG1       13.9080    5.4040   19.7410 C.3   273  VAL273      0.0023
    127  CG2       12.9780    6.7580   21.6840 C.3   273  VAL273      0.0023
    128  N         11.2930    8.4860   19.5870 N.am  274  GLU274     -0.1977
    129  CA        11.5420    9.8260   18.9830 C.3   274  GLU274      0.1602
    130  C         13.0640   10.0270   18.9410 C.2   274  GLU274      0.2287
    131  O         13.7900    9.7110   19.8980 O.2   274  GLU274     -0.2864
    132  CB        10.9780   10.9400   19.8650 C.3   274  GLU274      0.0415
    133  CG         9.4830   10.9330   20.1420 C.3   274  GLU274      0.1163
    134  CD         8.6340   11.1340   18.8680 C.2   274  GLU274      0.3649
    135  OE1        9.0510   11.8960   17.9560 O.co2 274  GLU274     -0.2457
    136  OE2        7.5500   10.5280   18.8170 O.co2 274  GLU274     -0.2457
    137  N         14.4780   11.8630   22.0530 N.3   277  ASN277     -0.1240
    138  CA        14.2410   11.3480   23.4000 C.3   277  ASN277      0.1653
    139  C         15.5670   10.7660   23.8890 C.2   277  ASN277      0.2266
    140  O         15.8110    9.5700   23.8310 O.2   277  ASN277     -0.2867
    141  CB        13.1300   10.2680   23.3400 C.3   277  ASN277      0.1155
    142  CG        12.7680    9.7440   24.7180 C.2   277  ASN277      0.2627
    143  OD1       13.4880    9.9840   25.6990 O.2   277  ASN277     -0.2716
    144  ND2       11.6710    8.9790   24.7950 N.am  277  ASN277     -0.0877
    145  N         17.0690   10.1980   26.8430 N.3   279  ALA279     -0.1231
    146  CA        17.1020    9.1600   27.8890 C.3   279  ALA279      0.1694
    147  C         16.8320    7.7740   27.3260 C.2   279  ALA279      0.2591
    148  O         17.5420    6.7970   27.5900 O.2   279  ALA279     -0.2718
    149  CB        16.0460    9.4670   28.9820 C.3   279  ALA279      0.0304
    150  N         15.7870    7.6860   26.5170 N.am  280  ALA280     -0.1980
    151  CA        15.4380    6.3940   25.9770 C.3   280  ALA280      0.1597
    152  C         16.4360    5.8700   24.9670 C.2   280  ALA280      0.2287
    153  O         16.7660    4.6750   24.9500 O.2   280  ALA280     -0.2864
    154  CB        14.0000    6.4600   25.3600 C.3   280  ALA280      0.0319
    155  N         19.2040    4.2900   26.8310 N.3   283  THR283     -0.1203
    156  CA        18.7900    2.9980   27.3830 C.3   283  THR283      0.1994
    157  C         18.8400    1.9160   26.3000 C.2   283  THR283      0.2617
    158  O         19.4220    0.8480   26.4900 O.2   283  THR283     -0.2717
    159  CB        17.3390    3.0680   27.9570 C.3   283  THR283      0.1784
    160  OG1       17.2870    4.1000   28.9410 O.3   283  THR283     -0.2211
    161  CG2       16.9130    1.7260   28.5360 C.3   283  THR283      0.0376
    162  N         18.2380    2.1890   25.1380 N.am  284  TYR284     -0.1975
    163  CA        18.2410    1.1900   24.0720 C.3   284  TYR284      0.1639
    164  C         19.6440    0.9060   23.4480 C.2   284  TYR284      0.2290
    165  O         19.9710   -0.2490   23.1590 O.2   284  TYR284     -0.2864
    166  CB        17.2510    1.6270   22.9810 C.3   284  TYR284      0.0560
    167  CG        15.8580    1.8880   23.5500 C.ar  284  TYR284     -0.0198
    168  CD1       15.3590    1.1440   24.6290 C.ar  284  TYR284     -0.0009
    169  CD2       15.0230    2.8610   22.9780 C.ar  284  TYR284     -0.0009
    170  CE1       14.0680    1.3430   25.1250 C.ar  284  TYR284      0.0417
    171  CE2       13.7310    3.0680   23.4440 C.ar  284  TYR284      0.0417
    172  CZ        13.2440    2.3070   24.5190 C.ar  284  TYR284      0.1957
    173  OH        11.9360    2.4790   24.9560 O.3   284  TYR284     -0.2866
@<TRIPOS>BOND
     1   120   119    1
     2   118   119   ar
     3   118   116   ar
     4   119   117   ar
     5   116   114   ar
     6   117   115   ar
     7   114   115   ar
     8   114   113    1
     9   113   110    1
    10   124   123    2
    11   135   134   ar
    12   110   109    1
    13   110   111    1
    14   121   111   am
    15   121   122    1
    16   136   134   ar
    17   134   133    1
    18   130   129    1
    19   130   131    2
    20   129   128    1
    21   129   132    1
    22   123   128   am
    23   123   122    1
    24   111   112    2
    25   126   125    1
    26   122   125    1
    27   132   133    1
    28   125   127    1
    29    25    26   ar
    30    25    23   ar
    31   137   138    1
    32    26    24   ar
    33    23    22   ar
    34   169   171   ar
    35   169   167   ar
    36   166   167    1
    37   166   163    1
    38   165   164    2
    39    24    22   ar
    40   141   138    1
    41   141   142    1
    42   138   139    1
    43   171   172   ar
    44   164   163    1
    45   167   168   ar
    46    22    21    1
    47    19    20    2
    48    19    18    1
    49   140   139    2
    50   163   162    1
    51   172   173    1
    52   172   170   ar
    53    18    21    1
    54    18    17    1
    55   168   170   ar
    56   142   144   am
    57   142   143    2
    58    27    28    1
    59   153   152    2
    60   152   151    1
    61   162   157   am
    62    33    31    1
    63   154   151    1
    64    28    31    1
    65    28    29    1
    66   151   150    1
    67   157   158    2
    68   157   156    1
    69    31    32    1
    70   150   147   am
    71    15    13   ar
    72    15    16   ar
    73   155   156    1
    74   145   146    1
    75    13    11   ar
    76    29    34   am
    77    29    30    2
    78    34    35    1
    79   147   148    2
    80   147   146    1
    81    16    14   ar
    82   156   159    1
    83    38    35    1
    84    38    39    1
    85   146   149    1
    86    11    10    1
    87    11    12   ar
    88   159   161    1
    89   159   160    1
    90     9     8    2
    91    41    39    1
    92    10     7    1
    93    35    36    1
    94    14    12   ar
    95    37    36    2
    96    39    40    1
    97     8     7    1
    98    36    42   am
    99     7     6    1
   100    42    43    1
   101     4     3    2
   102     6     3   am
   103     3     2    1
   104   108   106   am
   105    43    44    1
   106    99    98    2
   107   106   107    2
   108   106   105    1
   109   105   104    1
   110   103   102    2
   111   101   104    1
   112   101   102    1
   113   101   100    1
   114    98   100   am
   115    98    97    1
   116     5     2    1
   117     2     1    1
   118    44    46   am
   119    44    45    2
   120    97    96    1
   121    46    47    1
   122    61    59   am
   123    72    70    1
   124    60    59    2
   125    96    90   am
   126    52    50    1
   127    59    58    1
   128    91    90    2
   129    47    50    1
   130    47    48    1
   131    49    48    2
   132    50    51    1
   133    90    89    1
   134    70    71    1
   135    70    69    2
   136    58    57    1
   137    67    68    1
   138    67    66    1
   139    87    86    2
   140    68    69    1
   141    57    54    1
   142    86    85    1
   143    86    88   am
   144    89    88    1
   145    89    92    1
   146    85    84    1
   147    62    63    1
   148    62    55   am
   149    63    66    1
   150    63    64    1
   151    54    55    1
   152    54    53    1
   153    84    75   am
   154    92    93    1
   155    55    56    2
   156    64    73   am
   157    64    65    2
   158    73    74    1
   159    75    74    1
   160    75    76    2
   161    93    95    1
   162    93    94    1
   163    74    77    1
   164    77    78    1
   165    79    78    1
   166    79    80    1
   167    82    81    1
   168    80    81    2
   169    81    83    1
