@<TRIPOS>MOLECULE
tmp/2c27A00.pdb
 247 238 0 0 0
SMALL
GASTEIGER

@<TRIPOS>ATOM
      1  N          3.6400   -0.8420    6.4950 N.3    28  ALA28      -0.1245
      2  CA         2.2110   -0.4470    6.5010 C.3    28  ALA28       0.1562
      3  C          2.1270    1.0520    6.2380 C.2    28  ALA28       0.2260
      4  O          2.8260    1.8660    6.8720 O.2    28  ALA28      -0.2867
      5  CB         1.5420   -0.7960    7.8470 C.3    28  ALA28       0.0290
      6  N         -0.6630    3.7160   10.4220 N.3    31  GLY31      -0.1210
      7  CA        -0.3620    3.0960   11.7040 C.3    31  GLY31       0.1956
      8  C         -1.5550    2.3870   12.3290 C.2    31  GLY31       0.2612
      9  O         -2.7000    2.4800   11.9130 O.2    31  GLY31      -0.2717
     10  N         -1.2440    1.6480   13.3760 N.am   32  GLU32      -0.1965
     11  CA        -2.2800    0.8480   14.0360 C.3    32  GLU32       0.1733
     12  C         -3.4360    1.7010   14.5720 C.2    32  GLU32       0.2616
     13  O         -4.6020    1.2470   14.5380 O.2    32  GLU32      -0.2715
     14  CB        -1.6170    0.0250   15.1570 C.3    32  GLU32       0.0429
     15  CG        -2.5540   -0.9330   15.7760 C.3    32  GLU32       0.1163
     16  CD        -1.8550   -1.8610   16.7700 C.2    32  GLU32       0.3649
     17  OE1       -1.3310   -1.3540   17.7880 O.co2  32  GLU32      -0.2457
     18  OE2       -1.8800   -3.0740   16.5020 O.co2  32  GLU32      -0.2457
     19  N         -3.1420    2.9230   15.0370 N.am   33  GLN33      -0.1977
     20  CA        -4.1870    3.7570   15.5770 C.3    33  GLN33       0.1601
     21  C         -5.1970    4.1260   14.4700 C.2    33  GLN33       0.2287
     22  O         -6.3780    4.2390   14.7270 O.2    33  GLN33      -0.2864
     23  CB        -3.6450    5.0220   16.2280 C.3    33  GLN33       0.0394
     24  CG        -4.7700    5.9070   16.8770 C.3    33  GLN33       0.0908
     25  CD        -5.4730    5.2510   18.1120 C.2    33  GLN33       0.2608
     26  OE1       -4.8510    4.5380   18.8970 O.2    33  GLN33      -0.2717
     27  NE2       -6.7490    5.5450   18.2950 N.am   33  GLN33      -0.0878
     28  N         -7.6320    1.3440   14.1730 N.3    36  ARG36      -0.1245
     29  CA        -8.6660    1.3890   15.2180 C.3    36  ARG36       0.1563
     30  C         -9.6610    2.5100   14.9130 C.2    36  ARG36       0.2260
     31  O        -10.8580    2.3620   15.1340 O.2    36  ARG36      -0.2867
     32  CB        -8.0700    1.6150   16.6370 C.3    36  ARG36       0.0307
     33  CG        -7.5900    0.3110   17.2210 C.3    36  ARG36       0.0489
     34  CD        -7.2580    0.4100   18.7430 C.3    36  ARG36       0.2205
     35  NE        -6.1530    1.3100   18.9590 N.pl3  36  ARG36      -0.0865
     36  CZ        -4.8760    0.9500   18.9180 C.cat  36  ARG36       0.5346
     37  NH1       -4.5180   -0.3080   18.7050 N.pl3  36  ARG36       0.1354
     38  NH2       -3.9510    1.8790   18.9640 N.pl3  36  ARG36       0.1354
     39  N         -2.7700   10.5750    7.7710 N.3    72  GLU72      -0.1245
     40  CA        -2.0110    9.4230    7.2490 C.3    72  GLU72       0.1567
     41  C         -2.7450    9.1050    5.9830 C.2    72  GLU72       0.2260
     42  O         -3.9640    9.2750    5.9150 O.2    72  GLU72      -0.2867
     43  CB        -2.0670    8.2300    8.2130 C.3    72  GLU72       0.0388
     44  CG        -1.4670    8.6720    9.5980 C.3    72  GLU72       0.1160
     45  CD        -1.0170    7.5130   10.4570 C.2    72  GLU72       0.3649
     46  OE1       -0.4950    6.5370    9.9280 O.co2  72  GLU72      -0.2457
     47  OE2       -1.1730    7.6280   11.6730 O.co2  72  GLU72      -0.2457
     48  N          2.1980   11.5930    8.4370 N.3   103  TRP103     -0.1241
     49  CA         3.2100   10.5630    8.6990 C.3   103  TRP103      0.1605
     50  C          3.6260    9.8850    7.3700 C.2   103  TRP103      0.2264
     51  O          2.7730    9.5320    6.5440 O.2   103  TRP103     -0.2867
     52  CB         2.5860    9.4270    9.5230 C.3   103  TRP103      0.0550
     53  CG         2.6360    9.6590   11.0010 C.ar  103  TRP103      0.0003
     54  CD1        1.5800    9.6730   11.8650 C.ar  103  TRP103      0.0946
     55  CD2        3.8240    9.8300   11.7950 C.ar  103  TRP103      0.0152
     56  NE1        2.0450    9.8620   13.1710 N.ar  103  TRP103     -0.2442
     57  CE2        3.4140    9.9790   13.1300 C.ar  103  TRP103      0.0810
     58  CE3        5.1900    9.9130   11.4930 C.ar  103  TRP103      0.0012
     59  CZ2        4.3380   10.1620   14.1860 C.ar  103  TRP103      0.0191
     60  CZ3        6.1180   10.1010   12.5510 C.ar  103  TRP103      0.0001
     61  CH2        5.6760   10.2400   13.8580 C.ar  103  TRP103      0.0015
     62  N          5.4770    6.5880    7.0070 N.3   105  HIS105     -0.1241
     63  CA         6.0860    5.4480    7.7000 C.3   105  HIS105      0.1621
     64  C          7.1430    4.8200    6.8000 C.2   105  HIS105      0.2264
     65  O          6.8680    4.5450    5.5970 O.2   105  HIS105     -0.2867
     66  CB         4.9910    4.4340    8.0490 C.3   105  HIS105      0.0745
     67  CG         3.9190    5.0220    8.8940 C.ar  105  HIS105      0.0817
     68  ND1        4.1730    5.4080   10.1960 N.ar  105  HIS105     -0.2268
     69  CD2        2.6200    5.3440    8.6590 C.ar  105  HIS105      0.1154
     70  CE1        3.0850    5.9330   10.7160 C.ar  105  HIS105      0.1986
     71  NE2        2.1190    5.9060    9.8080 N.ar  105  HIS105     -0.2212
     72  N          9.4980   15.8290   12.5030 N.3   124  ARG124     -0.1245
     73  CA         9.5420   14.8680   13.5800 C.3   124  ARG124      0.1563
     74  C         10.1270   13.5800   13.0280 C.2   124  ARG124      0.2260
     75  O          9.7880   13.1780   11.9170 O.2   124  ARG124     -0.2867
     76  CB         8.1120   14.6600   14.0600 C.3   124  ARG124      0.0307
     77  CG         7.9660   13.7660   15.2410 C.3   124  ARG124      0.0489
     78  CD         6.4910   13.7660   15.7590 C.3   124  ARG124      0.2205
     79  NE         6.3190   12.6130   16.6640 N.pl3 124  ARG124     -0.0865
     80  CZ         5.1450   12.1540   17.0770 C.cat 124  ARG124      0.5346
     81  NH1        4.0110   12.7540   16.6880 N.pl3 124  ARG124      0.1354
     82  NH2        5.1070   11.0630   17.8310 N.pl3 124  ARG124      0.1354
     83  N         10.6760    9.6030   13.9510 N.3   126  LEU126     -0.1245
     84  CA        10.3970    8.4800   14.8480 C.3   126  LEU126      0.1561
     85  C         11.2470    7.3060   14.2840 C.2   126  LEU126      0.2260
     86  O         11.0290    6.7520   13.1770 O.2   126  LEU126     -0.2867
     87  CB         8.8780    8.1880   14.8140 C.3   126  LEU126      0.0270
     88  CG         8.4440    7.0450   15.7380 C.3   126  LEU126      0.0019
     89  CD1        8.4610    7.5720   17.2130 C.3   126  LEU126      0.0001
     90  CD2        7.0450    6.6010   15.3390 C.3   126  LEU126      0.0001
     91  N          4.5660   10.1390   30.4240 N.3   167  PHE167     -0.1241
     92  CA         4.3310   10.6400   29.0570 C.3   167  PHE167      0.1605
     93  C          3.6240   12.0070   28.9780 C.2   167  PHE167      0.2264
     94  O          3.0370   12.3750   27.9580 O.2   167  PHE167     -0.2867
     95  CB         3.5460    9.5700   28.2590 C.3   167  PHE167      0.0534
     96  CG         4.3750    8.3350   27.9470 C.ar  167  PHE167     -0.0203
     97  CD1        4.2260    7.1590   28.6940 C.ar  167  PHE167     -0.0042
     98  CD2        5.3320    8.3720   26.8940 C.ar  167  PHE167     -0.0042
     99  CE1        5.0300    6.0160   28.3760 C.ar  167  PHE167     -0.0003
    100  CE2        6.1260    7.2570   26.6050 C.ar  167  PHE167     -0.0003
    101  CZ         5.9710    6.1010   27.3320 C.ar  167  PHE167     -0.0000
    102  N          3.4330   14.0460   25.7430 N.3   170  HIS170     -0.1241
    103  CA         3.6620   13.2280   24.5440 C.3   170  HIS170      0.1621
    104  C          2.3780   13.3570   23.7420 C.2   170  HIS170      0.2264
    105  O          1.2870   13.1250   24.2480 O.2   170  HIS170     -0.2867
    106  CB         3.9870   11.7640   24.8830 C.3   170  HIS170      0.0745
    107  CG         4.3760   10.9430   23.6700 C.ar  170  HIS170      0.0817
    108  ND1        3.4720   10.5940   22.6870 N.ar  170  HIS170     -0.2268
    109  CD2        5.5650   10.3970   23.2940 C.ar  170  HIS170      0.1154
    110  CE1        4.0840    9.8660   21.7580 C.ar  170  HIS170      0.1986
    111  NE2        5.3520    9.7290   22.1010 N.ar  170  HIS170     -0.2212
    112  N          0.8620   11.4900   21.5740 N.3   172  GLU172     -0.1231
    113  CA        -0.0930   10.3770   21.4550 C.3   172  GLU172      0.1699
    114  C         -0.2150    9.4930   22.7010 C.2   172  GLU172      0.2592
    115  O         -1.2360    8.8120   22.9180 O.2   172  GLU172     -0.2718
    116  CB         0.3140    9.4520   20.2960 C.3   172  GLU172      0.0402
    117  CG         0.2330   10.1240   18.9240 C.3   172  GLU172      0.1161
    118  CD         1.5630   10.6980   18.4820 C.2   172  GLU172      0.3649
    119  OE1        2.6260   10.1380   18.8620 O.co2 172  GLU172     -0.2457
    120  OE2        1.5240   11.6940   17.7300 O.co2 172  GLU172     -0.2457
    121  N          0.8680    9.4370   23.4570 N.am  173  GLN173     -0.1979
    122  CA         0.9310    8.5300   24.5890 C.3   173  GLN173      0.1601
    123  C          0.4900    9.1990   25.8930 C.2   173  GLN173      0.2287
    124  O          0.1130    8.4940   26.8230 O.2   173  GLN173     -0.2864
    125  CB         2.3670    7.9600   24.7090 C.3   173  GLN173      0.0394
    126  CG         2.4680    6.7920   25.6660 C.3   173  GLN173      0.0908
    127  CD         1.6060    5.6140   25.2360 C.2   173  GLN173      0.2608
    128  OE1        1.5120    5.2820   23.9920 O.2   173  GLN173     -0.2717
    129  NE2        0.9630    4.9480   26.2390 N.am  173  GLN173     -0.0878
    130  N          4.5610   -6.4940   23.0020 N.3   217  LYS217     -0.1245
    131  CA         3.5430   -6.8670   22.0310 C.3   217  LYS217      0.1561
    132  C          4.1610   -7.8460   21.0130 C.2   217  LYS217      0.2260
    133  O          5.2690   -7.6090   20.5470 O.2   217  LYS217     -0.2867
    134  CB         3.0510   -5.6200   21.3090 C.3   217  LYS217      0.0271
    135  CG         2.3290   -5.8970   19.9570 C.3   217  LYS217      0.0035
    136  CD         1.8960   -4.5400   19.2760 C.3   217  LYS217      0.0206
    137  CE         1.1420   -4.8050   17.9460 C.3   217  LYS217      0.1093
    138  NZ         0.8970   -3.4350   17.3220 N.3   217  LYS217     -0.1314
    139  N          3.7920   -9.2050   17.2800 N.3   219  HIS219     -0.1241
    140  CA         3.0820   -8.8060   16.0480 C.3   219  HIS219      0.1621
    141  C          2.3910  -10.0030   15.4210 C.2   219  HIS219      0.2264
    142  O          2.9930  -11.0210   15.1980 O.2   219  HIS219     -0.2867
    143  CB         4.0720   -8.1220   15.0850 C.3   219  HIS219      0.0745
    144  CG         4.3420   -6.7000   15.4750 C.ar  219  HIS219      0.0817
    145  ND1        3.9370   -5.6310   14.7080 N.ar  219  HIS219     -0.2268
    146  CD2        4.8510   -6.1670   16.6160 C.ar  219  HIS219      0.1154
    147  CE1        4.1890   -4.5020   15.3550 C.ar  219  HIS219      0.1986
    148  NE2        4.7420   -4.7980   16.5150 N.ar  219  HIS219     -0.2212
    149  N          7.8050   -6.5500   20.2870 N.3   227  GLU227     -0.1231
    150  CA         7.9790   -5.1060   20.4010 C.3   227  GLU227      0.1699
    151  C          7.9450   -4.6030   21.8220 C.2   227  GLU227      0.2592
    152  O          7.1800   -5.1010   22.6390 O.2   227  GLU227     -0.2718
    153  CB         6.8490   -4.4020   19.6100 C.3   227  GLU227      0.0402
    154  CG         6.9900   -2.8460   19.6860 C.3   227  GLU227      0.1161
    155  CD         5.8580   -2.0740   18.9050 C.2   227  GLU227      0.3649
    156  OE1        4.9830   -2.6900   18.2470 O.co2 227  GLU227     -0.2457
    157  OE2        5.8760   -0.8460   18.9480 O.co2 227  GLU227     -0.2457
    158  N          8.8070   -3.6280   22.1070 N.am  228  VAL228     -0.1966
    159  CA         8.8130   -2.9010   23.3670 C.3   228  VAL228      0.1727
    160  C          7.7560   -1.8160   23.0160 C.2   228  VAL228      0.2616
    161  O          8.0970   -0.6860   22.5930 O.2   228  VAL228     -0.2715
    162  CB        10.1560   -2.2380   23.5690 C.3   228  VAL228      0.0290
    163  CG1       10.1400   -1.3260   24.7800 C.3   228  VAL228      0.0023
    164  CG2       11.2020   -3.3240   23.6470 C.3   228  VAL228      0.0023
    165  N          6.4830   -2.1570   23.2380 N.am  229  TYR229     -0.1960
    166  CA         5.3480   -1.3500   22.7860 C.3   229  TYR229      0.1771
    167  C          5.1490   -0.0690   23.5960 C.2   229  TYR229      0.2619
    168  O          4.9770    0.9910   23.0180 O.2   229  TYR229     -0.2715
    169  CB         4.1220   -2.2960   22.7780 C.3   229  TYR229      0.0574
    170  CG         2.8460   -1.6040   22.4570 C.ar  229  TYR229     -0.0198
    171  CD1        2.5990   -1.1670   21.1560 C.ar  229  TYR229     -0.0009
    172  CD2        1.8380   -1.4630   23.4140 C.ar  229  TYR229     -0.0009
    173  CE1        1.4070   -0.6340   20.8100 C.ar  229  TYR229      0.0417
    174  CE2        0.6010   -0.9100   23.0640 C.ar  229  TYR229      0.0417
    175  CZ         0.4080   -0.5080   21.7530 C.ar  229  TYR229      0.1957
    176  OH        -0.7670    0.0270   21.3980 O.3   229  TYR229     -0.2866
    177  N          5.2150   -0.1450   24.9330 N.am  230  VAL230     -0.1963
    178  CA         5.1840    1.0670   25.7570 C.3   230  VAL230      0.1727
    179  C          6.0920    0.7370   26.9450 C.2   230  VAL230      0.2616
    180  O          5.8980   -0.2720   27.6280 O.2   230  VAL230     -0.2715
    181  CB         3.7580    1.4780   26.3440 C.3   230  VAL230      0.0290
    182  CG1        3.9010    2.8410   27.0960 C.3   230  VAL230      0.0023
    183  CG2        2.7620    1.6900   25.1770 C.3   230  VAL230      0.0023
    184  N          7.0750    1.6030   27.1600 N.am  231  LEU231     -0.1977
    185  CA         7.9920    1.4260   28.3060 C.3   231  LEU231      0.1596
    186  C          7.9660    2.7420   29.0500 C.2   231  LEU231      0.2287
    187  O          8.2740    3.7930   28.4620 O.2   231  LEU231     -0.2864
    188  CB         9.4220    1.1540   27.8100 C.3   231  LEU231      0.0297
    189  CG        10.5210    1.2680   28.8930 C.3   231  LEU231      0.0022
    190  CD1       10.3860    0.0710   29.7950 C.3   231  LEU231      0.0001
    191  CD2       11.9530    1.2760   28.2510 C.3   231  LEU231      0.0001
    192  N          9.8870    1.7680   18.7170 N.3   272  TYR272     -0.1227
    193  CA         9.8840    3.0750   18.1040 C.3   272  TYR272      0.1736
    194  C         10.2870    4.0520   19.1850 C.2   272  TYR272      0.2595
    195  O          9.8700    3.9140   20.3410 O.2   272  TYR272     -0.2718
    196  CB         8.4880    3.4680   17.6400 C.3   272  TYR272      0.0548
    197  CG         8.0620    2.6710   16.4180 C.ar  272  TYR272     -0.0200
    198  CD1        7.2760    1.4870   16.5450 C.ar  272  TYR272     -0.0009
    199  CD2        8.3960    3.1210   15.1490 C.ar  272  TYR272     -0.0009
    200  CE1        6.8520    0.8170   15.4260 C.ar  272  TYR272      0.0417
    201  CE2        7.9550    2.4530   14.0430 C.ar  272  TYR272      0.0417
    202  CZ         7.1880    1.3150   14.1850 C.ar  272  TYR272      0.1957
    203  OH         6.7410    0.6980   13.0520 O.3   272  TYR272     -0.2866
    204  N         11.0640    5.0580   18.7960 N.am  273  VAL273     -0.1966
    205  CA        11.4430    6.0780   19.7490 C.3   273  VAL273      0.1727
    206  C         11.7330    7.3810   19.0000 C.2   273  VAL273      0.2616
    207  O         12.2410    7.3510   17.8970 O.2   273  VAL273     -0.2715
    208  CB        12.6560    5.6480   20.6160 C.3   273  VAL273      0.0290
    209  CG1       13.9080    5.4040   19.7410 C.3   273  VAL273      0.0023
    210  CG2       12.9780    6.7580   21.6840 C.3   273  VAL273      0.0023
    211  N         11.2930    8.4860   19.5870 N.am  274  GLU274     -0.1977
    212  CA        11.5420    9.8260   18.9830 C.3   274  GLU274      0.1602
    213  C         13.0640   10.0270   18.9410 C.2   274  GLU274      0.2287
    214  O         13.7900    9.7110   19.8980 O.2   274  GLU274     -0.2864
    215  CB        10.9780   10.9400   19.8650 C.3   274  GLU274      0.0415
    216  CG         9.4830   10.9330   20.1420 C.3   274  GLU274      0.1163
    217  CD         8.6340   11.1340   18.8680 C.2   274  GLU274      0.3649
    218  OE1        9.0510   11.8960   17.9560 O.co2 274  GLU274     -0.2457
    219  OE2        7.5500   10.5280   18.8170 O.co2 274  GLU274     -0.2457
    220  N         14.4780   11.8630   22.0530 N.3   277  ASN277     -0.1240
    221  CA        14.2410   11.3480   23.4000 C.3   277  ASN277      0.1653
    222  C         15.5670   10.7660   23.8890 C.2   277  ASN277      0.2266
    223  O         15.8110    9.5700   23.8310 O.2   277  ASN277     -0.2867
    224  CB        13.1300   10.2680   23.3400 C.3   277  ASN277      0.1155
    225  CG        12.7680    9.7440   24.7180 C.2   277  ASN277      0.2627
    226  OD1       13.4880    9.9840   25.6990 O.2   277  ASN277     -0.2716
    227  ND2       11.6710    8.9790   24.7950 N.am  277  ASN277     -0.0877
    228  N         18.2380    2.1890   25.1380 N.3   284  TYR284     -0.1241
    229  CA        18.2410    1.1900   24.0720 C.3   284  TYR284      0.1605
    230  C         19.6440    0.9060   23.4480 C.2   284  TYR284      0.2264
    231  O         19.9710   -0.2490   23.1590 O.2   284  TYR284     -0.2867
    232  CB        17.2510    1.6270   22.9810 C.3   284  TYR284      0.0534
    233  CG        15.8580    1.8880   23.5500 C.ar  284  TYR284     -0.0201
    234  CD1       15.3590    1.1440   24.6290 C.ar  284  TYR284     -0.0009
    235  CD2       15.0230    2.8610   22.9780 C.ar  284  TYR284     -0.0009
    236  CE1       14.0680    1.3430   25.1250 C.ar  284  TYR284      0.0417
    237  CE2       13.7310    3.0680   23.4440 C.ar  284  TYR284      0.0417
    238  CZ        13.2440    2.3070   24.5190 C.ar  284  TYR284      0.1957
    239  OH        11.9360    2.4790   24.9560 O.3   284  TYR284     -0.2866
    240  N         10.4700    6.7590   10.6210 N.3   295  ASP295     -0.1239
    241  CA         9.1620    7.3030   10.1670 C.3   295  ASP295      0.1674
    242  C          9.2970    8.8360   10.2900 C.2   295  ASP295      0.2266
    243  O          9.7120    9.3410   11.3100 O.2   295  ASP295     -0.2867
    244  CB         7.9760    6.8640   11.0680 C.3   295  ASP295      0.1410
    245  CG         7.5850    5.4180   10.8600 C.2   295  ASP295      0.3668
    246  OD1        8.3440    4.6800   10.1640 O.co2 295  ASP295     -0.2456
    247  OD2        6.5370    5.0230   11.4410 O.co2 295  ASP295     -0.2456
@<TRIPOS>BOND
     1    65    64    2
     2    42    41    2
     3    41    40    1
     4     3     2    1
     5     3     4    2
     6     1     2    1
     7     2     5    1
     8    51    50    2
     9    64    63    1
    10    62    63    1
    11    40    39    1
    12    40    43    1
    13    50    49    1
    14    63    66    1
    15    66    67    1
    16    43    44    1
    17    48    49    1
    18    69    67   ar
    19    69    71   ar
    20    49    52    1
    21    67    68   ar
    22    52    53    1
    23    44    45    1
    24    71    70   ar
    25    46    45   ar
    26   246   245   ar
    27   241   242    1
    28   241   240    1
    29   241   244    1
    30    68    70   ar
    31   242   243    2
    32     6     7    1
    33    45    47   ar
    34   245   244    1
    35   245   247   ar
    36    53    55   ar
    37    53    54   ar
    38    58    55   ar
    39    58    60   ar
    40     7     8    1
    41    55    57   ar
    42    54    56   ar
    43     9     8    2
    44    75    74    2
    45     8    10   am
    46    72    73    1
    47    60    61   ar
    48    74    73    1
    49   203   202    1
    50    57    56   ar
    51    57    59   ar
    52    86    85    2
    53    10    11    1
    54    73    76    1
    55    61    59   ar
    56    83    84    1
    57    11    12    1
    58    11    14    1
    59   201   202   ar
    60   201   199   ar
    61    76    77    1
    62    28    29    1
    63   202   200   ar
    64    85    84    1
    65    21    22    2
    66    21    20    1
    67    13    12    2
    68    12    19   am
    69   145   147   ar
    70   145   144   ar
    71    87    84    1
    72    87    88    1
    73    30    31    2
    74    30    29    1
    75    19    20    1
    76   143   144    1
    77   143   140    1
    78   199   197   ar
    79    14    15    1
    80   142   141    2
    81    29    32    1
    82    77    78    1
    83    90    88    1
    84   147   148   ar
    85   141   140    1
    86   200   198   ar
    87   144   146   ar
    88    20    23    1
    89    88    89    1
    90    78    79    1
    91    15    16    1
    92   140   139    1
    93    23    24    1
    94   197   198   ar
    95   197   196    1
    96    18    16   ar
    97   148   146   ar
    98    32    33    1
    99    79    80    2
   100    81    80    1
   101    16    17   ar
   102    24    25    1
   103    80    82    1
   104    33    34    1
   105   138   137    1
   106   196   193    1
   107   120   118   ar
   108   207   206    2
   109   137   136    1
   110   218   217   ar
   111   193   192    1
   112   193   194    1
   113    25    27   am
   114    25    26    2
   115   156   155   ar
   116   118   119   ar
   117   118   117    1
   118    37    36    1
   119    34    35    1
   120   204   194   am
   121   204   205    1
   122   219   217   ar
   123   217   216    1
   124   155   157   ar
   125   155   154    1
   126    36    35    2
   127    36    38    1
   128   117   116    1
   129   213   212    1
   130   213   214    2
   131   212   211    1
   132   212   215    1
   133   206   211   am
   134   206   205    1
   135   194   195    2
   136   136   135    1
   137   153   154    1
   138   153   150    1
   139   209   208    1
   140   205   208    1
   141   215   216    1
   142   135   134    1
   143   149   150    1
   144   116   113    1
   145   150   151    1
   146   133   132    2
   147   208   210    1
   148   173   171   ar
   149   173   175   ar
   150   132   131    1
   151   171   170   ar
   152   134   131    1
   153   176   175    1
   154   113   112    1
   155   113   114    1
   156   175   174   ar
   157   110   111   ar
   158   110   108   ar
   159   151   158   am
   160   151   152    2
   161   131   130    1
   162   220   221    1
   163   111   109   ar
   164   158   159    1
   165   170   169    1
   166   170   172   ar
   167   161   160    2
   168   108   107   ar
   169   114   115    2
   170   114   121   am
   171   169   166    1
   172   166   165    1
   173   166   167    1
   174   235   237   ar
   175   235   233   ar
   176   232   233    1
   177   232   229    1
   178   160   165   am
   179   160   159    1
   180   168   167    2
   181   174   172   ar
   182   231   230    2
   183   109   107   ar
   184   224   221    1
   185   224   225    1
   186   159   162    1
   187   221   222    1
   188   237   238   ar
   189   230   229    1
   190   121   122    1
   191   233   234   ar
   192   162   164    1
   193   162   163    1
   194   167   177   am
   195   107   106    1
   196   104   105    2
   197   104   103    1
   198   223   222    2
   199   128   127    2
   200   229   228    1
   201   238   239    1
   202   238   236   ar
   203   103   106    1
   204   103   102    1
   205   122   125    1
   206   122   123    1
   207   234   236   ar
   208   125   126    1
   209   225   227   am
   210   225   226    2
   211   177   178    1
   212   183   181    1
   213   127   126    1
   214   127   129   am
   215   178   181    1
   216   178   179    1
   217   123   124    2
   218   181   182    1
   219   100    98   ar
   220   100   101   ar
   221    98    96   ar
   222   179   184   am
   223   179   180    2
   224   184   185    1
   225   101    99   ar
   226   188   185    1
   227   188   189    1
   228    96    95    1
   229    96    97   ar
   230    94    93    2
   231   191   189    1
   232    95    92    1
   233   185   186    1
   234    99    97   ar
   235   187   186    2
   236   189   190    1
   237    93    92    1
   238    92    91    1
