@<TRIPOS>MOLECULE
tmp/2c28A00.pdb
 110 105 0 0 0
SMALL
GASTEIGER

@<TRIPOS>ATOM
      1  N         16.3190   41.1880    7.6500 N.3     7  ASP7       -0.1239
      2  CA        17.7310   40.8460    7.5300 C.3     7  ASP7        0.1674
      3  C         18.5050   41.9650    6.7950 C.2     7  ASP7        0.2266
      4  O         18.2760   42.1720    5.6020 O.2     7  ASP7       -0.2867
      5  CB        17.7850   39.5220    6.7750 C.3     7  ASP7        0.1410
      6  CG        19.1750   39.0090    6.5590 C.2     7  ASP7        0.3668
      7  OD1       19.3190   37.7790    6.5090 O.co2   7  ASP7       -0.2456
      8  OD2       20.1070   39.8090    6.4170 O.co2   7  ASP7       -0.2456
      9  N         25.4020   43.6880    5.5280 N.3    11  PHE11      -0.1227
     10  CA        25.5150   44.6100    6.6230 C.3    11  PHE11       0.1736
     11  C         26.7990   45.3470    6.9200 C.2    11  PHE11       0.2595
     12  O         26.8060   46.5690    6.8600 O.2    11  PHE11      -0.2718
     13  CB        25.0180   43.9620    7.9230 C.3    11  PHE11       0.0547
     14  CG        24.7130   44.9740    8.9960 C.ar   11  PHE11      -0.0202
     15  CD1       23.9270   46.0770    8.6980 C.ar   11  PHE11      -0.0042
     16  CD2       25.2180   44.8480   10.2780 C.ar   11  PHE11      -0.0042
     17  CE1       23.6420   47.0540    9.6650 C.ar   11  PHE11      -0.0003
     18  CE2       24.9370   45.8210   11.2590 C.ar   11  PHE11      -0.0003
     19  CZ        24.1430   46.9290   10.9420 C.ar   11  PHE11      -0.0000
     20  N         27.8710   44.6410    7.2730 N.am   12  TYR12      -0.1976
     21  CA        29.1120   45.3430    7.6170 C.3    12  TYR12       0.1639
     22  C         29.5780   46.2560    6.5030 C.2    12  TYR12       0.2290
     23  O         29.9120   47.4220    6.7390 O.2    12  TYR12      -0.2864
     24  CB        30.2450   44.3640    7.9480 C.3    12  TYR12       0.0560
     25  CG        29.9660   43.4650    9.1290 C.ar   12  TYR12      -0.0198
     26  CD1       28.8940   43.7170    9.9930 C.ar   12  TYR12      -0.0009
     27  CD2       30.7800   42.3610    9.3890 C.ar   12  TYR12      -0.0009
     28  CE1       28.6410   42.8850   11.0840 C.ar   12  TYR12       0.0417
     29  CE2       30.5410   41.5210   10.4690 C.ar   12  TYR12       0.0417
     30  CZ        29.4740   41.7830   11.3130 C.ar   12  TYR12       0.1957
     31  OH        29.2410   40.9200   12.3610 O.3    12  TYR12      -0.2866
     32  N         39.0200   40.7780    8.3400 N.3    32  VAL32      -0.1245
     33  CA        39.5010   40.5480    9.6870 C.3    32  VAL32       0.1561
     34  C         40.9790   40.1720    9.4990 C.2    32  VAL32       0.2260
     35  O         41.3060   39.0220    9.2160 O.2    32  VAL32      -0.2867
     36  CB        38.7400   39.3790   10.3790 C.3    32  VAL32       0.0252
     37  CG1       39.4070   39.0220   11.7100 C.3    32  VAL32       0.0019
     38  CG2       37.2850   39.7760   10.6160 C.3    32  VAL32       0.0019
     39  N         40.7940   36.6160    6.9410 N.3    42  ALA42      -0.1231
     40  CA        39.6610   36.2420    6.0990 C.3    42  ALA42       0.1694
     41  C         38.6390   37.3690    5.8570 C.2    42  ALA42       0.2592
     42  O         38.6580   38.4210    6.5150 O.2    42  ALA42      -0.2718
     43  CB        38.9650   35.0350    6.7170 C.3    42  ALA42       0.0304
     44  N         37.7410   37.1350    4.9020 N.am   43  VAL43      -0.1966
     45  CA        36.7040   38.1140    4.5820 C.3    43  VAL43       0.1727
     46  C         35.5370   37.9340    5.5650 C.2    43  VAL43       0.2616
     47  O         35.0530   36.8230    5.7350 O.2    43  VAL43      -0.2715
     48  CB        36.1950   37.9200    3.1230 C.3    43  VAL43       0.0290
     49  CG1       34.9700   38.7970    2.8540 C.3    43  VAL43       0.0023
     50  CG2       37.3010   38.2690    2.1500 C.3    43  VAL43       0.0023
     51  N         35.1160   39.0040    6.2440 N.am   44  ALA44      -0.1963
     52  CA        33.9750   38.8790    7.1660 C.3    44  ALA44       0.1728
     53  C         32.7270   39.0060    6.2970 C.2    44  ALA44       0.2616
     54  O         31.7550   38.2850    6.4960 O.2    44  ALA44      -0.2715
     55  CB        33.9900   39.9900    8.2400 C.3    44  ALA44       0.0334
     56  N         32.7560   39.9460    5.3490 N.am   45  THR45      -0.1951
     57  CA        31.6420   40.1460    4.4110 C.3    45  THR45       0.1897
     58  C         32.0760   41.0410    3.2430 C.2    45  THR45       0.2313
     59  O         33.1040   41.7120    3.3080 O.2    45  THR45      -0.2863
     60  CB        30.3690   40.7570    5.1200 C.3    45  THR45       0.1794
     61  OG1       30.0270   42.0160    4.5350 O.3    45  THR45      -0.2208
     62  CG2       30.6270   40.9830    6.6050 C.3    45  THR45       0.0378
     63  N         32.3350   36.0740    2.2060 N.3    57  ALA57      -0.1231
     64  CA        32.7450   35.7750    3.5690 C.3    57  ALA57       0.1694
     65  C         33.4100   34.4070    3.6880 C.2    57  ALA57       0.2592
     66  O         32.9780   33.4410    3.0550 O.2    57  ALA57      -0.2718
     67  CB        31.5250   35.8450    4.5020 C.3    57  ALA57       0.0304
     68  N         34.4600   34.3280    4.4990 N.am   58  GLY58      -0.1957
     69  CA        35.1330   33.0550    4.6900 C.3    58  GLY58       0.1869
     70  C         36.3850   32.8270    3.8610 C.2    58  GLY58       0.2309
     71  O         37.2710   32.0890    4.2840 O.2    58  GLY58      -0.2863
     72  N         37.4960   45.2960    9.7840 N.3    76  MET76      -0.1245
     73  CA        36.1830   45.2050   10.4050 C.3    76  MET76       0.1570
     74  C         36.0850   46.1010   11.6410 C.2    76  MET76       0.2261
     75  O         36.9700   46.0920   12.4900 O.2    76  MET76      -0.2867
     76  CB        35.8880   43.7550   10.7970 C.3    76  MET76       0.0387
     77  CG        34.4100   43.4480   10.8740 C.3    76  MET76       0.0595
     78  SD        34.0930   41.9090   11.7000 S.3    76  MET76      -0.1393
     79  CE        34.7880   42.2660   13.2940 C.3    76  MET76       0.0692
     80  N         20.5070   38.3250   15.7800 N.3   103  SER103     -0.1202
     81  CA        21.9370   38.6270   15.6550 C.3   103  SER103      0.2020
     82  C         22.0940   40.0880   15.3300 C.2   103  SER103      0.2619
     83  O         21.1060   40.8320   15.2940 O.2   103  SER103     -0.2717
     84  CB        22.5930   37.8040   14.5430 C.3   103  SER103      0.2103
     85  OG        22.0640   38.1670   13.2820 O.3   103  SER103     -0.2182
     86  N         23.3300   40.4900   15.0630 N.am  104  ILE104     -0.1965
     87  CA        23.6210   41.8760   14.7500 C.3   104  ILE104      0.1727
     88  C         22.8710   42.3950   13.5220 C.2   104  ILE104      0.2616
     89  O         22.7690   43.6040   13.3230 O.2   104  ILE104     -0.2715
     90  CB        25.1320   42.0790   14.5410 C.3   104  ILE104      0.0290
     91  CG1       25.4520   43.5710   14.5870 C.3   104  ILE104      0.0022
     92  CG2       25.5750   41.4160   13.2230 C.3   104  ILE104      0.0023
     93  CD1       26.9210   43.8850   14.5980 C.3   104  ILE104      0.0001
     94  N         22.3210   41.5010   12.7080 N.am  105  ASP105     -0.1957
     95  CA        21.6380   41.9630   11.5100 C.3   105  ASP105      0.1840
     96  C         20.3440   41.2150   11.1640 C.2   105  ASP105      0.2621
     97  O         19.8540   41.2910   10.0240 O.2   105  ASP105     -0.2715
     98  CB        22.5890   41.8370   10.3440 C.3   105  ASP105      0.1450
     99  CG        22.6510   40.4180    9.8250 C.2   105  ASP105      0.3671
    100  OD1       22.6850   39.4720   10.6480 O.co2 105  ASP105     -0.2456
    101  OD2       22.6500   40.2550    8.5940 O.co2 105  ASP105     -0.2456
    102  N         19.7950   40.5040   12.1410 N.am  106  GLU106     -0.1977
    103  CA        18.5690   39.7290   11.9400 C.3   106  GLU106      0.1602
    104  C         17.6110   39.8920   13.1120 C.2   106  GLU106      0.2287
    105  O         18.0190   39.7990   14.2690 O.2   106  GLU106     -0.2864
    106  CB        18.8710   38.2190   11.8260 C.3   106  GLU106      0.0415
    107  CG        19.4230   37.7110   10.4930 C.3   106  GLU106      0.1163
    108  CD        19.8470   36.2420   10.5640 C.2   106  GLU106      0.3649
    109  OE1       19.0890   35.4000   11.1110 O.co2 106  GLU106     -0.2457
    110  OE2       20.9470   35.9270   10.0670 O.co2 106  GLU106     -0.2457
@<TRIPOS>BOND
     1    50    48    1
     2    63    64    1
     3    49    48    1
     4    66    65    2
     5    48    45    1
     6    58    59    2
     7    58    57    1
     8    64    65    1
     9    64    67    1
    10    65    68   am
    11    70    71    2
    12    70    69    1
    13    57    60    1
    14    57    56    1
    15    68    69    1
    16    61    60    1
    17    45    44    1
    18    45    46    1
    19    44    41   am
    20    60    62    1
    21    56    53   am
    22     9    10    1
    23    46    47    2
    24    46    51   am
    25     4     3    2
    26    41    40    1
    27    41    42    2
    28    40    43    1
    29    40    39    1
    30    51    52    1
    31    53    54    2
    32    53    52    1
    33     8     6   ar
    34    22    23    2
    35    22    21    1
    36     7     6   ar
    37     6     5    1
    38    10    11    1
    39    10    13    1
    40     5     2    1
    41     3     2    1
    42    12    11    2
    43    11    20   am
    44    52    55    1
    45    20    21    1
    46     2     1    1
    47    21    24    1
    48    13    14    1
    49    24    25    1
    50    32    33    1
    51   101    99   ar
    52    15    14   ar
    53    15    17   ar
    54    14    16   ar
    55    25    27   ar
    56    25    26   ar
    57    35    34    2
    58    27    29   ar
    59    34    33    1
    60    17    19   ar
    61    33    36    1
    62    72    73    1
    63    99    98    1
    64    99   100   ar
    65    26    28   ar
    66    97    96    2
    67   110   108   ar
    68    16    18   ar
    69    98    95    1
    70    36    38    1
    71    36    37    1
    72    73    76    1
    73    73    74    1
    74    29    30   ar
    75   107   108    1
    76   107   106    1
    77   108   109   ar
    78    76    77    1
    79    77    78    1
    80    19    18   ar
    81    28    30   ar
    82    96    95    1
    83    96   102   am
    84    30    31    1
    85    95    94    1
    86    74    75    2
    87    78    79    1
    88   106   103    1
    89   103   102    1
    90   103   104    1
    91    94    88   am
    92   104   105    2
    93    92    90    1
    94    85    84    1
    95    89    88    2
    96    88    87    1
    97    90    91    1
    98    90    87    1
    99    84    81    1
   100    91    93    1
   101    87    86    1
   102    86    82   am
   103    83    82    2
   104    82    81    1
   105    81    80    1
