@<TRIPOS>MOLECULE
tmp/2c29B01.pdb
 162 156 0 0 0
SMALL
GASTEIGER

@<TRIPOS>ATOM
      1  N         49.8970   37.6880   38.4610 N.3    84  MET84      -0.1245
      2  CA        48.7230   37.6600   37.5840 C.3    84  MET84       0.1570
      3  C         47.9680   38.9950   37.3940 C.2    84  MET84       0.2261
      4  O         46.9240   39.0180   36.7440 O.2    84  MET84      -0.2867
      5  CB        47.7400   36.5920   38.0730 C.3    84  MET84       0.0387
      6  CG        48.1970   35.1560   37.8270 C.3    84  MET84       0.0595
      7  SD        48.5750   34.7680   36.0880 S.3    84  MET84      -0.1393
      8  CE        47.1330   35.4520   35.2860 C.3    84  MET84       0.0692
      9  N         46.4400   41.9320   35.8250 N.3    86  PHE86      -0.1241
     10  CA        46.2220   42.4790   34.4810 C.3    86  PHE86       0.1605
     11  C         46.0960   44.0070   34.5050 C.2    86  PHE86       0.2264
     12  O         46.2070   44.6480   33.4640 O.2    86  PHE86      -0.2867
     13  CB        44.9690   41.9080   33.8060 C.3    86  PHE86       0.0534
     14  CG        45.0550   40.4330   33.4530 C.ar   86  PHE86      -0.0203
     15  CD1       46.2480   39.7180   33.5430 C.ar   86  PHE86      -0.0042
     16  CD2       43.9200   39.7750   33.0200 C.ar   86  PHE86      -0.0042
     17  CE1       46.2900   38.3510   33.2100 C.ar   86  PHE86      -0.0003
     18  CE2       43.9580   38.4290   32.6720 C.ar   86  PHE86      -0.0003
     19  CZ        45.1350   37.7200   32.7710 C.ar   86  PHE86      -0.0000
     20  N         52.8740   29.8450   28.7870 N.3   124  SER124     -0.1202
     21  CA        51.5150   30.3400   28.4940 C.3   124  SER124      0.2020
     22  C         51.3360   30.3920   26.9700 C.2   124  SER124      0.2619
     23  O         52.3080   30.6560   26.2400 O.2   124  SER124     -0.2717
     24  CB        51.3890   31.7700   29.0390 C.3   124  SER124      0.2103
     25  OG        50.1890   32.3770   28.6560 O.3   124  SER124     -0.2182
     26  N         50.1050   30.2160   26.4970 N.am  125  ALA125     -0.1965
     27  CA        49.7530   30.4690   25.0940 C.3   125  ALA125      0.1728
     28  C         49.9780   31.9390   24.6800 C.2   125  ALA125      0.2616
     29  O         50.1190   32.2390   23.4910 O.2   125  ALA125     -0.2715
     30  CB        48.3500   30.1000   24.8120 C.3   125  ALA125      0.0334
     31  N         49.9880   32.8220   25.6570 N.am  126  GLY126     -0.1955
     32  CA        50.2790   34.2410   25.4170 C.3   126  GLY126      0.1869
     33  C         51.6770   34.4640   24.8610 C.2   126  GLY126      0.2309
     34  O         51.9730   35.5430   24.3430 O.2   126  GLY126     -0.2863
     35  N         50.7740   32.9460   20.3680 N.3   129  ASN129     -0.1225
     36  CA        49.9200   33.4710   19.2950 C.3   129  ASN129      0.1785
     37  C         49.3780   34.8810   19.4540 C.2   129  ASN129      0.2597
     38  O         48.2890   35.1130   18.9740 O.2   129  ASN129     -0.2718
     39  CB        48.7100   32.5770   19.0600 C.3   129  ASN129      0.1169
     40  CG        47.6690   32.6610   20.1850 C.2   129  ASN129      0.2627
     41  OD1       48.0140   32.8380   21.3560 O.2   129  ASN129     -0.2716
     42  ND2       46.3780   32.5410   19.8300 N.am  129  ASN129     -0.0877
     43  N         50.1090   35.7630   20.1260 N.am  130  ILE130     -0.1980
     44  CA        49.7360   37.1700   20.2010 C.3   130  ILE130      0.1595
     45  C         50.3870   37.9190   19.0300 C.2   130  ILE130      0.2287
     46  O         51.5080   38.4300   19.1120 O.2   130  ILE130     -0.2864
     47  CB        50.0850   37.8160   21.5480 C.3   130  ILE130      0.0276
     48  CG1       49.5550   36.9630   22.7220 C.3   130  ILE130      0.0022
     49  CG2       49.5600   39.2660   21.5980 C.3   130  ILE130      0.0022
     50  CD1       48.0360   36.6600   22.7320 C.3   130  ILE130      0.0001
     51  N         50.7230   40.7100   31.1260 N.3   159  TYR159     -0.1227
     52  CA        50.9060   39.2970   31.4740 C.3   159  TYR159      0.1736
     53  C         51.5360   38.5300   30.3030 C.2   159  TYR159      0.2595
     54  O         52.5180   37.8250   30.4830 O.2   159  TYR159     -0.2718
     55  CB        49.5430   38.6890   31.8970 C.3   159  TYR159      0.0548
     56  CG        49.5340   37.1700   32.0340 C.ar  159  TYR159     -0.0200
     57  CD1       50.3140   36.5360   32.9920 C.ar  159  TYR159     -0.0009
     58  CD2       48.7330   36.3940   31.2220 C.ar  159  TYR159     -0.0009
     59  CE1       50.3330   35.1400   33.0980 C.ar  159  TYR159      0.0417
     60  CE2       48.7320   35.0170   31.3180 C.ar  159  TYR159      0.0417
     61  CZ        49.5270   34.3950   32.2690 C.ar  159  TYR159      0.1957
     62  OH        49.5130   33.0260   32.3570 O.3   159  TYR159     -0.2866
     63  N         50.9810   38.6710   29.1030 N.am  160  PHE160     -0.1976
     64  CA        51.5460   38.0140   27.9210 C.3   160  PHE160      0.1639
     65  C         53.0290   38.3930   27.6780 C.2   160  PHE160      0.2290
     66  O         53.8900   37.5410   27.4210 O.2   160  PHE160     -0.2864
     67  CB        50.6720   38.3000   26.6750 C.3   160  PHE160      0.0560
     68  CG        49.2490   37.7990   26.7800 C.ar  160  PHE160     -0.0200
     69  CD1       48.9170   36.6860   27.5840 C.ar  160  PHE160     -0.0042
     70  CD2       48.2430   38.3890   26.0230 C.ar  160  PHE160     -0.0042
     71  CE1       47.5900   36.2220   27.6570 C.ar  160  PHE160     -0.0003
     72  CE2       46.9300   37.9230   26.0890 C.ar  160  PHE160     -0.0003
     73  CZ        46.6110   36.8280   26.9090 C.ar  160  PHE160     -0.0000
     74  N         50.2740   25.8390   28.3220 N.3   186  PRO186     -0.2102
     75  CA        48.8350   25.6750   28.4000 C.3   186  PRO186      0.1504
     76  C         48.0950   26.7470   27.6290 C.2   186  PRO186      0.2576
     77  O         48.5970   27.8920   27.5160 O.2   186  PRO186     -0.2718
     78  CB        48.5300   25.7910   29.9090 C.3   186  PRO186      0.0282
     79  CG        49.8190   25.9680   30.5830 C.3   186  PRO186      0.0208
     80  CD        50.8470   26.2610   29.6010 C.3   186  PRO186      0.0893
     81  N         46.8410   26.4000   27.3070 N.am  187  THR187     -0.1939
     82  CA        46.0450   27.4560   26.6900 C.3   187  THR187      0.2028
     83  C         45.1320   28.0750   27.7430 C.2   187  THR187      0.2642
     84  O         45.6150   28.6590   28.7280 O.2   187  THR187     -0.2714
     85  CB        45.2200   26.8630   25.5430 C.3   187  THR187      0.1808
     86  OG1       44.6980   25.5950   25.9160 O.3   187  THR187     -0.2208
     87  CG2       46.0520   26.6640   24.2750 C.3   187  THR187      0.0379
     88  N         43.8150   27.8360   27.6570 N.am  188  LEU188     -0.1977
     89  CA        43.0270   28.2840   28.7980 C.3   188  LEU188      0.1596
     90  C         42.6770   27.0690   29.6360 C.2   188  LEU188      0.2287
     91  O         42.0800   26.1080   29.1410 O.2   188  LEU188     -0.2864
     92  CB        41.7940   29.0540   28.3680 C.3   188  LEU188      0.0297
     93  CG        41.1120   29.8260   29.4960 C.3   188  LEU188      0.0022
     94  CD1       41.8580   31.0640   29.9420 C.3   188  LEU188      0.0001
     95  CD2       39.7190   30.1870   29.0440 C.3   188  LEU188      0.0001
     96  N         41.9500   32.7910   38.3870 N.3   200  PRO200     -0.2102
     97  CA        42.0440   33.8350   37.3550 C.3   200  PRO200      0.1504
     98  C         41.5420   33.4080   35.9670 C.2   200  PRO200      0.2576
     99  O         40.7670   34.1310   35.3470 O.2   200  PRO200     -0.2718
    100  CB        43.5450   34.1760   37.3490 C.3   200  PRO200      0.0282
    101  CG        43.9400   33.9770   38.7620 C.3   200  PRO200      0.0208
    102  CD        43.1990   32.7260   39.1850 C.3   200  PRO200      0.0893
    103  N         41.9210   32.2250   35.4980 N.am  201  SER201     -0.1953
    104  CA        41.5200   31.8130   34.1690 C.3   201  SER201      0.1924
    105  C         40.0340   31.4590   34.0660 C.2   201  SER201      0.2314
    106  O         39.5020   31.4250   32.9670 O.2   201  SER201     -0.2863
    107  CB        42.3750   30.6680   33.6180 C.3   201  SER201      0.2116
    108  OG        42.2030   29.4760   34.3210 O.3   201  SER201     -0.2180
    109  N         38.1240   34.3670   32.7590 N.3   204  THR204     -0.1218
    110  CA        38.0680   34.3040   31.3140 C.3   204  THR204      0.1862
    111  C         37.1470   33.1930   30.8160 C.2   204  THR204      0.2287
    112  O         36.2940   33.4060   29.9480 O.2   204  THR204     -0.2866
    113  CB        39.4810   34.1500   30.7310 C.3   204  THR204      0.1770
    114  OG1       40.3180   35.2350   31.1970 O.3   204  THR204     -0.2211
    115  CG2       39.4380   34.1430   29.2090 C.3   204  THR204      0.0375
    116  N         37.0720   40.0080   28.7450 N.3   215  HIS215     -0.1241
    117  CA        37.7830   38.7400   28.6140 C.3   215  HIS215      0.1621
    118  C         37.4490   37.9540   27.3490 C.2   215  HIS215      0.2264
    119  O         38.1230   36.9690   27.0440 O.2   215  HIS215     -0.2867
    120  CB        37.5440   37.8970   29.8700 C.3   215  HIS215      0.0745
    121  CG        38.3060   38.3900   31.0570 C.ar  215  HIS215      0.0817
    122  ND1       39.3840   37.7140   31.5810 N.ar  215  HIS215     -0.2268
    123  CD2       38.2000   39.5380   31.7690 C.ar  215  HIS215      0.1154
    124  CE1       39.8760   38.3970   32.5990 C.ar  215  HIS215      0.1986
    125  NE2       39.1830   39.5100   32.7270 N.ar  215  HIS215     -0.2212
    126  N         40.1120   36.7720   24.5730 N.3   218  ILE218     -0.1245
    127  CA        40.9440   35.5990   24.7930 C.3   218  ILE218      0.1561
    128  C         40.2570   34.3070   24.3230 C.2   218  ILE218      0.2260
    129  O         40.9420   33.3690   23.9150 O.2   218  ILE218     -0.2867
    130  CB        41.4080   35.5270   26.2810 C.3   218  ILE218      0.0252
    131  CG1       42.3510   36.7050   26.5670 C.3   218  ILE218      0.0019
    132  CG2       42.1410   34.2040   26.5940 C.3   218  ILE218      0.0019
    133  CD1       42.7070   36.9480   28.0430 C.3   218  ILE218      0.0001
    134  N         38.6450   33.2130   19.5370 N.3   221  GLN221     -0.1245
    135  CA        39.1520   32.0070   18.9320 C.3   221  GLN221      0.1566
    136  C         39.9070   31.2840   20.0310 C.2   221  GLN221      0.2260
    137  O         41.0940   31.5210   20.2450 O.2   221  GLN221     -0.2867
    138  CB        40.0700   32.3510   17.7650 C.3   221  GLN221      0.0367
    139  CG        39.2780   32.7950   16.5410 C.3   221  GLN221      0.0905
    140  CD        40.1130   33.4830   15.5040 C.2   221  GLN221      0.2608
    141  OE1       40.8050   34.4960   15.7830 O.2   221  GLN221     -0.2717
    142  NE2       40.0350   32.9730   14.2790 N.am  221  GLN221     -0.0878
    143  N         41.1630   28.2040   22.8820 N.3   223  GLN223     -0.1245
    144  CA        41.7350   26.8660   23.0610 C.3   223  GLN223      0.1566
    145  C         41.7630   26.5470   24.5420 C.2   223  GLN223      0.2260
    146  O         41.9180   27.4170   25.3800 O.2   223  GLN223     -0.2867
    147  CB        43.1460   26.7860   22.4930 C.3   223  GLN223      0.0367
    148  CG        43.3050   27.2870   21.0660 C.3   223  GLN223      0.0905
    149  CD        43.6800   28.7470   20.9820 C.2   223  GLN223      0.2608
    150  OE1       44.2780   29.2990   21.9020 O.2   223  GLN223     -0.2717
    151  NE2       43.3810   29.3650   19.8460 N.am  223  GLN223     -0.0878
    152  N         45.6810   24.9180   18.7570 N.3   288  PHE288     -0.1241
    153  CA        47.0210   24.6970   19.3070 C.3   288  PHE288      0.1605
    154  C         47.3700   23.2170   19.2370 C.2   288  PHE288      0.2264
    155  O         46.7940   22.4090   19.9640 O.2   288  PHE288     -0.2867
    156  CB        47.1050   25.1330   20.7440 C.3   288  PHE288      0.0534
    157  CG        47.5450   26.5820   20.8970 C.ar  288  PHE288     -0.0203
    158  CD1       46.9010   27.5680   20.2300 C.ar  288  PHE288     -0.0042
    159  CD2       48.6450   26.8990   21.6820 C.ar  288  PHE288     -0.0042
    160  CE1       47.3400   28.8890   20.3840 C.ar  288  PHE288     -0.0003
    161  CE2       49.0650   28.2230   21.8440 C.ar  288  PHE288     -0.0003
    162  CZ        48.4180   29.1770   21.1910 C.ar  288  PHE288     -0.0000
@<TRIPOS>BOND
     1   142   140   am
     2   140   141    2
     3   140   139    1
     4   139   138    1
     5   138   135    1
     6   152   153    1
     7   135   134    1
     8   135   136    1
     9    38    37    2
    10    45    46    2
    11    45    44    1
    12    39    36    1
    13    39    40    1
    14   154   153    1
    15   154   155    2
    16    36    37    1
    17    36    35    1
    18   153   156    1
    19    37    43   am
    20    42    40   am
    21   151   149   am
    22   136   137    2
    23    43    44    1
    24    40    41    2
    25    44    47    1
    26   158   160   ar
    27   158   157   ar
    28   160   162   ar
    29   156   157    1
    30   157   159   ar
    31   149   148    1
    32   149   150    2
    33   148   147    1
    34   162   161   ar
    35    47    49    1
    36    47    48    1
    37   159   161   ar
    38   147   144    1
    39    48    50    1
    40   143   144    1
    41   144   145    1
    42    29    28    2
    43   129   128    2
    44    87    85    1
    45   128   127    1
    46    34    33    2
    47   145   146    2
    48   126   127    1
    49    28    27    1
    50    28    31   am
    51   127   130    1
    52    30    27    1
    53    33    32    1
    54    27    26    1
    55    32    31    1
    56    85    86    1
    57    85    82    1
    58    70    72   ar
    59    70    68   ar
    60    72    73   ar
    61    23    22    2
    62   130   131    1
    63   130   132    1
    64    26    22   am
    65   131   133    1
    66    67    68    1
    67    67    64    1
    68    82    81    1
    69    82    83    1
    70    68    69   ar
    71    73    71   ar
    72    22    21    1
    73   119   118    2
    74    81    76   am
    75   118   117    1
    76    66    65    2
    77    77    76    2
    78    69    71   ar
    79    76    75    1
    80    88    83   am
    81    88    89    1
    82    65    64    1
    83    83    84    2
    84    64    63    1
    85    74    75    1
    86    74    80    1
    87    92    89    1
    88    92    93    1
    89    75    78    1
    90    21    20    1
    91    21    24    1
    92   117   116    1
    93   117   120    1
    94    25    24    1
    95    89    90    1
    96    95    93    1
    97    63    53   am
    98    91    90    2
    99   115   113    1
   100    93    94    1
   101    80    79    1
   102   120   121    1
   103    78    79    1
   104   112   111    2
   105    53    54    2
   106    53    52    1
   107   113   114    1
   108   113   110    1
   109   111   110    1
   110   121   122   ar
   111   121   123   ar
   112    51    52    1
   113    58    60   ar
   114    58    56   ar
   115   110   109    1
   116    60    61   ar
   117    52    55    1
   118   122   124   ar
   119   123   125   ar
   120    55    56    1
   121    56    57   ar
   122    61    62    1
   123    61    59   ar
   124   124   125   ar
   125    18    19   ar
   126    18    16   ar
   127    19    17   ar
   128   106   105    2
   129    57    59   ar
   130    16    14   ar
   131    17    15   ar
   132    14    15   ar
   133    14    13    1
   134    12    11    2
   135   107   104    1
   136   107   108    1
   137    13    10    1
   138   105   104    1
   139   104   103    1
   140    10    11    1
   141    10     9    1
   142     8     7    1
   143    99    98    2
   144   103    98   am
   145    98    97    1
   146     7     6    1
   147     4     3    2
   148   100    97    1
   149   100   101    1
   150    97    96    1
   151     3     2    1
   152     2     5    1
   153     2     1    1
   154     6     5    1
   155    96   102    1
   156   101   102    1
