@<TRIPOS>MOLECULE
tmp/2c2bA02.pdb
 140 136 0 0 0
SMALL
GASTEIGER

@<TRIPOS>ATOM
      1  N         31.5600   50.4290   73.6820 N.3   126  SER126     -0.1202
      2  CA        32.1340   51.7420   73.9900 C.3   126  SER126      0.2020
      3  C         33.6250   51.6290   74.3100 C.2   126  SER126      0.2619
      4  O         34.1470   50.5250   74.4880 O.2   126  SER126     -0.2717
      5  CB        31.3780   52.4210   75.1420 C.3   126  SER126      0.2103
      6  OG        31.7810   51.9160   76.4080 O.3   126  SER126     -0.2182
      7  N         34.3010   52.7730   74.3880 N.am  127  PHE127     -0.1961
      8  CA        35.7350   52.8020   74.6770 C.3   127  PHE127      0.1771
      9  C         36.0760   52.3430   76.0960 C.2   127  PHE127      0.2619
     10  O         37.2340   52.0370   76.3880 O.2   127  PHE127     -0.2715
     11  CB        36.3280   54.1920   74.3940 C.3   127  PHE127      0.0574
     12  CG        36.0570   55.2160   75.4640 C.ar  127  PHE127     -0.0200
     13  CD1       37.0010   55.4760   76.4520 C.ar  127  PHE127     -0.0042
     14  CD2       34.8740   55.9470   75.4670 C.ar  127  PHE127     -0.0042
     15  CE1       36.7600   56.4390   77.4380 C.ar  127  PHE127     -0.0003
     16  CE2       34.6250   56.9150   76.4470 C.ar  127  PHE127     -0.0003
     17  CZ        35.5700   57.1620   77.4320 C.ar  127  PHE127     -0.0000
     18  N         35.0670   52.2820   76.9640 N.am  128  LYS128     -0.1977
     19  CA        35.2730   51.9370   78.3720 C.3   128  LYS128      0.1596
     20  C         35.8560   50.5450   78.5980 C.2   128  LYS128      0.2287
     21  O         36.4310   50.2730   79.6550 O.2   128  LYS128     -0.2864
     22  CB        33.9940   52.1750   79.1860 C.3   128  LYS128      0.0298
     23  CG        33.9990   53.5340   79.8910 C.3   128  LYS128      0.0038
     24  CD        32.7090   54.3190   79.6990 C.3   128  LYS128      0.0206
     25  CE        32.8430   55.7160   80.2870 C.3   128  LYS128      0.1093
     26  NZ        31.6880   56.5960   79.9370 N.3   128  LYS128     -0.1314
     27  N         27.1320   52.8290   80.3470 N.3   159  ASP159     -0.1239
     28  CA        28.4370   52.7420   79.6730 C.3   159  ASP159      0.1674
     29  C         29.5690   52.1830   80.5310 C.2   159  ASP159      0.2266
     30  O         30.3160   51.3090   80.0860 O.2   159  ASP159     -0.2867
     31  CB        28.8410   54.1050   79.1040 C.3   159  ASP159      0.1410
     32  CG        28.1810   54.4040   77.7660 C.2   159  ASP159      0.3668
     33  OD1       27.8000   55.5740   77.5420 O.co2 159  ASP159     -0.2456
     34  OD2       28.0450   53.4750   76.9380 O.co2 159  ASP159     -0.2456
     35  N         43.0050   53.1650   78.5870 N.3   236  GLN236     -0.1245
     36  CA        42.4260   54.1010   77.6280 C.3   236  GLN236      0.1566
     37  C         43.4740   54.8730   76.8350 C.2   236  GLN236      0.2260
     38  O         43.2300   55.2550   75.6850 O.2   236  GLN236     -0.2867
     39  CB        41.4520   55.0440   78.3320 C.3   236  GLN236      0.0367
     40  CG        40.1640   54.3460   78.7720 C.3   236  GLN236      0.0905
     41  CD        39.3100   55.1810   79.7080 C.2   236  GLN236      0.2608
     42  OE1       39.2830   56.4120   79.6250 O.2   236  GLN236     -0.2717
     43  NE2       38.5950   54.5080   80.6010 N.am  236  GLN236     -0.0878
     44  N         35.4290   63.5670   72.8420 N.3   258  PRO258     -0.2102
     45  CA        34.3220   63.9830   73.7100 C.3   258  PRO258      0.1504
     46  C         34.7190   63.9420   75.1860 C.2   258  PRO258      0.2576
     47  O         35.2750   62.9420   75.6480 O.2   258  PRO258     -0.2718
     48  CB        33.2380   62.9360   73.4230 C.3   258  PRO258      0.0282
     49  CG        33.5970   62.3680   72.0990 C.3   258  PRO258      0.0208
     50  CD        35.0880   62.3500   72.0860 C.3   258  PRO258      0.0893
     51  N         34.4380   65.0230   75.9100 N.am  259  GLY259     -0.1943
     52  CA        34.8370   65.1450   77.3080 C.3   259  GLY259      0.2014
     53  C         33.6840   65.2670   78.2850 C.2   259  GLY259      0.2639
     54  O         33.0420   66.3170   78.3730 O.2   259  GLY259     -0.2714
     55  N         33.4310   64.1860   79.0230 N.am  260  GLY260     -0.1939
     56  CA        32.4220   64.1600   80.0830 C.3   260  GLY260      0.2014
     57  C         33.0500   64.4510   81.4320 C.2   260  GLY260      0.2639
     58  O         33.0980   65.6060   81.8670 O.2   260  GLY260     -0.2714
     59  N         33.5280   63.4010   82.0980 N.am  261  ASN261     -0.1958
     60  CA        34.2990   63.5680   83.3290 C.3   261  ASN261      0.1819
     61  C         35.7690   63.9000   83.0450 C.2   261  ASN261      0.2621
     62  O         36.5590   64.0950   83.9750 O.2   261  ASN261     -0.2715
     63  CB        34.1630   62.3460   84.2490 C.3   261  ASN261      0.1195
     64  CG        33.0810   62.5240   85.3100 C.2   261  ASN261      0.2630
     65  OD1       33.1470   63.4310   86.1430 O.2   261  ASN261     -0.2716
     66  ND2       32.0890   61.6420   85.2940 N.am  261  ASN261     -0.0877
     67  N         36.1140   63.9540   81.7550 N.am  262  LEU262     -0.1963
     68  CA        37.3910   64.5010   81.2580 C.3   262  LEU262      0.1728
     69  C         38.6150   63.5930   81.4190 C.2   262  LEU262      0.2617
     70  O         39.7450   64.0230   81.1710 O.2   262  LEU262     -0.2715
     71  CB        37.6660   65.8900   81.8600 C.3   262  LEU262      0.0311
     72  CG        37.1630   67.1640   81.1690 C.3   262  LEU262      0.0022
     73  CD1       35.7770   67.0220   80.5440 C.3   262  LEU262      0.0001
     74  CD2       37.1930   68.3260   82.1580 C.3   262  LEU262      0.0001
     75  N         38.3900   62.3440   81.8140 N.am  263  GLY263     -0.1940
     76  CA        39.4810   61.3910   81.9900 C.3   263  GLY263      0.2014
     77  C         40.0850   60.9360   80.6740 C.2   263  GLY263      0.2639
     78  O         41.3090   60.9210   80.5120 O.2   263  GLY263     -0.2714
     79  N         39.2160   60.5710   79.7340 N.am  264  ASN264     -0.1958
     80  CA        39.6230   60.0640   78.4310 C.3   264  ASN264      0.1819
     81  C         40.5530   61.0080   77.6850 C.2   264  ASN264      0.2621
     82  O         41.5990   60.5880   77.1840 O.2   264  ASN264     -0.2715
     83  CB        38.3920   59.7640   77.5760 C.3   264  ASN264      0.1195
     84  CG        38.6950   58.8410   76.4100 C.2   264  ASN264      0.2630
     85  OD1       38.0380   58.9080   75.3720 O.2   264  ASN264     -0.2716
     86  ND2       39.6800   57.9610   76.5790 N.am  264  ASN264     -0.0877
     87  N         40.1730   62.2830   77.6210 N.am  265  ILE265     -0.1977
     88  CA        40.9640   63.2850   76.9110 C.3   265  ILE265      0.1596
     89  C         42.3870   63.3690   77.4880 C.2   265  ILE265      0.2287
     90  O         43.3610   63.5130   76.7380 O.2   265  ILE265     -0.2864
     91  CB        40.2200   64.6710   76.8360 C.3   265  ILE265      0.0276
     92  CG1       40.6230   65.4630   75.5780 C.3   265  ILE265      0.0022
     93  CG2       40.3260   65.4710   78.1500 C.3   265  ILE265      0.0022
     94  CD1       41.9350   66.2330   75.6680 C.3   265  ILE265      0.0001
     95  N         26.2010   60.2940   78.3960 N.3   321  ALA321     -0.1231
     96  CA        27.4390   60.0650   79.1430 C.3   321  ALA321      0.1694
     97  C         28.3690   61.2800   79.2190 C.2   321  ALA321      0.2591
     98  O         29.3290   61.2800   79.9920 O.2   321  ALA321     -0.2718
     99  CB        28.1800   58.8590   78.5710 C.3   321  ALA321      0.0304
    100  N         28.0840   62.3120   78.4280 N.am  322  ILE322     -0.1980
    101  CA        28.9220   63.5110   78.4030 C.3   322  ILE322      0.1595
    102  C         28.3630   64.6570   79.2620 C.2   322  ILE322      0.2287
    103  O         29.0710   65.6360   79.5230 O.2   322  ILE322     -0.2864
    104  CB        29.2130   63.9860   76.9440 C.3   322  ILE322      0.0276
    105  CG1       30.6060   64.6180   76.8470 C.3   322  ILE322      0.0022
    106  CG2       28.1230   64.9320   76.4340 C.3   322  ILE322      0.0022
    107  CD1       30.9840   65.1120   75.4580 C.3   322  ILE322      0.0001
    108  N         27.6880   61.5740   71.2970 N.3   369  HIS369     -0.1241
    109  CA        28.9360   62.1200   71.8320 C.3   369  HIS369      0.1621
    110  C         29.9410   62.3740   70.7060 C.2   369  HIS369      0.2264
    111  O         30.7000   63.3450   70.7500 O.2   369  HIS369     -0.2867
    112  CB        29.5260   61.1810   72.8870 C.3   369  HIS369      0.0745
    113  CG        28.4910   60.5040   73.7320 C.ar  369  HIS369      0.0817
    114  ND1       28.0270   61.0380   74.9140 N.ar  369  HIS369     -0.2268
    115  CD2       27.8190   59.3410   73.5570 C.ar  369  HIS369      0.1154
    116  CE1       27.1190   60.2310   75.4320 C.ar  369  HIS369      0.1986
    117  NE2       26.9710   59.1960   74.6270 N.ar  369  HIS369     -0.2212
    118  N         33.3360   57.5020   70.6730 N.3   397  THR397     -0.1203
    119  CA        33.3710   56.8470   71.9760 C.3   397  THR397      0.1994
    120  C         32.4400   55.6410   72.1070 C.2   397  THR397      0.2617
    121  O         32.7040   54.7370   72.9010 O.2   397  THR397     -0.2717
    122  CB        33.0620   57.8510   73.0990 C.3   397  THR397      0.1784
    123  OG1       31.8790   58.5920   72.7710 O.3   397  THR397     -0.2211
    124  CG2       34.2220   58.8170   73.2810 C.3   397  THR397      0.0376
    125  N         31.3580   55.6270   71.3350 N.am  398  ALA398     -0.1979
    126  CA        30.3810   54.5400   71.4110 C.3   398  ALA398      0.1597
    127  C         29.7200   54.2470   70.0720 C.2   398  ALA398      0.2287
    128  O         29.5440   55.1420   69.2370 O.2   398  ALA398     -0.2864
    129  CB        29.3200   54.8430   72.4590 C.3   398  ALA398      0.0319
    130  N         22.6980   53.7810   71.2500 N.3   403  PHE403     -0.1241
    131  CA        21.9410   55.0260   71.3060 C.3   403  PHE403      0.1605
    132  C         21.0030   55.1240   70.1050 C.2   403  PHE403      0.2264
    133  O         21.0480   56.0880   69.3350 O.2   403  PHE403     -0.2867
    134  CB        22.8900   56.2290   71.3770 C.3   403  PHE403      0.0534
    135  CG        23.8250   56.1930   72.5580 C.ar  403  PHE403     -0.0203
    136  CD1       23.4360   56.7190   73.7870 C.ar  403  PHE403     -0.0042
    137  CD2       25.0930   55.6260   72.4430 C.ar  403  PHE403     -0.0042
    138  CE1       24.2950   56.6830   74.8830 C.ar  403  PHE403     -0.0003
    139  CE2       25.9580   55.5840   73.5360 C.ar  403  PHE403     -0.0003
    140  CZ        25.5590   56.1130   74.7570 C.ar  403  PHE403     -0.0000
@<TRIPOS>BOND
     1   128   127    2
     2   133   132    2
     3   127   126    1
     4   132   131    1
     5   118   119    1
     6   110   111    2
     7   110   109    1
     8   130   131    1
     9   108   109    1
    10   131   134    1
    11   125   126    1
    12   125   120   am
    13   134   135    1
    14   126   129    1
    15   109   112    1
    16   119   120    1
    17   119   122    1
    18    50    49    1
    19    50    44    1
    20    49    48    1
    21   120   121    2
    22   137   135   ar
    23   137   139   ar
    24   135   136   ar
    25   123   122    1
    26    44    45    1
    27   112   113    1
    28   122   124    1
    29    48    45    1
    30   139   140   ar
    31   115   113   ar
    32   115   117   ar
    33     1     2    1
    34    45    46    1
    35   113   114   ar
    36   136   138   ar
    37     2     3    1
    38     2     5    1
    39     3     7   am
    40     3     4    2
    41     7     8    1
    42    11     8    1
    43    11    12    1
    44   117   116   ar
    45     8     9    1
    46   140   138   ar
    47   114   116   ar
    48     5     6    1
    49    46    47    2
    50    46    51   am
    51    85    84    2
    52   107   105    1
    53    12    14   ar
    54    12    13   ar
    55    14    16   ar
    56    92    94    1
    57    92    91    1
    58    38    37    2
    59    51    52    1
    60     9    10    2
    61     9    18   am
    62    84    86   am
    63    84    83    1
    64   106   104    1
    65    16    17   ar
    66    13    15   ar
    67    90    89    2
    68    37    36    1
    69    91    88    1
    70    91    93    1
    71   105   104    1
    72    88    89    1
    73    88    87    1
    74    34    32   ar
    75   104   101    1
    76    18    19    1
    77    82    81    2
    78    52    53    1
    79    17    15   ar
    80    33    32   ar
    81    83    80    1
    82    87    81   am
    83    36    39    1
    84    36    35    1
    85    81    80    1
    86    32    31    1
    87    53    54    2
    88    53    55   am
    89    39    40    1
    90    19    20    1
    91    19    22    1
    92    95    96    1
    93   101   100    1
    94   101   102    1
    95   100    97   am
    96    80    79    1
    97    99    96    1
    98    20    21    2
    99    40    41    1
   100    55    56    1
   101    31    28    1
   102    96    97    1
   103    22    23    1
   104    97    98    2
   105   102   103    2
   106    42    41    2
   107    28    27    1
   108    28    29    1
   109    24    23    1
   110    24    25    1
   111    41    43   am
   112    79    77   am
   113    26    25    1
   114    56    57    1
   115    30    29    2
   116    78    77    2
   117    73    72    1
   118    77    76    1
   119    72    71    1
   120    72    74    1
   121    70    69    2
   122    68    69    1
   123    68    67    1
   124    68    71    1
   125    69    75   am
   126    57    58    2
   127    57    59   am
   128    67    61   am
   129    75    76    1
   130    59    60    1
   131    61    60    1
   132    61    62    2
   133    60    63    1
   134    63    64    1
   135    66    64   am
   136    64    65    2
