@<TRIPOS>MOLECULE
tmp/2c2bD02.pdb
 79 80 0 0 0
SMALL
GASTEIGER

@<TRIPOS>ATOM
      1  N         45.5810   -5.8350    9.8650 N.3    63  GLY63      -0.1210
      2  CA        46.6600   -6.3490   10.7110 C.3    63  GLY63       0.1956
      3  C         47.2720   -7.6770   10.2950 C.2    63  GLY63       0.2612
      4  O         48.2830   -8.0970   10.8630 O.2    63  GLY63      -0.2717
      5  N         46.6650   -8.3310    9.3050 N.am   64  LYS64      -0.1965
      6  CA        47.0990   -9.6500    8.8370 C.3    64  LYS64       0.1728
      7  C         48.4990   -9.6180    8.2150 C.2    64  LYS64       0.2617
      8  O         49.0500   -8.5420    7.9660 O.2    64  LYS64      -0.2715
      9  CB        46.0790  -10.2310    7.8500 C.3    64  LYS64       0.0311
     10  CG        44.6900  -10.4770    8.4370 C.3    64  LYS64       0.0038
     11  CD        44.6980  -11.6070    9.4570 C.3    64  LYS64       0.0206
     12  CE        43.2960  -11.9340    9.9470 C.3    64  LYS64       0.1093
     13  NZ        43.3270  -13.0000   10.9900 N.3    64  LYS64      -0.1314
     14  N         49.0670  -10.8000    7.9740 N.am   65  SER65      -0.1936
     15  CA        50.4530  -10.9170    7.5140 C.3    65  SER65       0.2055
     16  C         50.5960  -11.0310    5.9930 C.2    65  SER65       0.2644
     17  O         51.7120  -11.1310    5.4720 O.2    65  SER65      -0.2714
     18  CB        51.1400  -12.1020    8.2020 C.3    65  SER65       0.2130
     19  OG        50.6430  -13.3380    7.7170 O.3    65  SER65      -0.2179
     20  N         49.4680  -11.0150    5.2870 N.am   66  THR66      -0.1936
     21  CA        49.4610  -11.1500    3.8340 C.3    66  THR66       0.2028
     22  C         49.8400   -9.8390    3.1500 C.2    66  THR66       0.2642
     23  O         49.1620   -8.8210    3.3070 O.2    66  THR66      -0.2714
     24  CB        48.0950  -11.6440    3.3210 C.3    66  THR66       0.1808
     25  OG1       47.7230  -12.8310    4.0320 O.3    66  THR66      -0.2208
     26  CG2       48.1480  -11.9480    1.8290 C.3    66  THR66       0.0379
     27  N         50.9350   -9.8860    2.3960 N.am   67  TRP67      -0.1960
     28  CA        51.4420   -8.7370    1.6520 C.3    67  TRP67       0.1756
     29  C         50.5440   -8.4240    0.4530 C.2    67  TRP67       0.2461
     30  O         50.1230   -9.3390   -0.2590 O.2    67  TRP67      -0.2730
     31  CB        52.8750   -9.0210    1.1840 C.3    67  TRP67       0.0590
     32  CG        53.4850   -7.9530    0.3020 C.ar   67  TRP67       0.0006
     33  CD1       53.4750   -7.9120   -1.0650 C.ar   67  TRP67       0.0946
     34  CD2       54.1970   -6.7830    0.7320 C.ar   67  TRP67       0.0152
     35  NE1       54.1300   -6.7880   -1.5140 N.ar   67  TRP67      -0.2442
     36  CE2       54.5850   -6.0790   -0.4330 C.ar   67  TRP67       0.0810
     37  CE3       54.5380   -6.2570    1.9850 C.ar   67  TRP67       0.0012
     38  CZ2       55.3020   -4.8810   -0.3800 C.ar   67  TRP67       0.0191
     39  CZ3       55.2490   -5.0650    2.0360 C.ar   67  TRP67       0.0001
     40  CH2       55.6240   -4.3910    0.8600 C.ar   67  TRP67       0.0015
     41  N         50.2550   -7.1300    0.2200 N.am   68  PRO68      -0.2727
     42  CA        50.6350   -5.9830    1.0340 C.3    68  PRO68       0.1402
     43  C         49.4920   -5.4760    1.9250 C.2    68  PRO68       0.2269
     44  O         49.5360   -4.3380    2.4040 O.2    68  PRO68      -0.2865
     45  CB        50.9660   -4.9360   -0.0270 C.3    68  PRO68       0.0296
     46  CG        50.0350   -5.2790   -1.1920 C.3    68  PRO68       0.0237
     47  CD        49.5350   -6.6950   -0.9900 C.3    68  PRO68       0.0939
     48  N         48.4770   -5.9260    4.8990 N.3    70  GLY70      -0.1210
     49  CA        48.6870   -5.6730    6.3270 C.3    70  GLY70       0.1956
     50  C         48.7680   -4.1980    6.6930 C.2    70  GLY70       0.2612
     51  O         48.4970   -3.8160    7.8340 O.2    70  GLY70      -0.2717
     52  N         49.1430   -3.3700    5.7230 N.am   71  SER71      -0.1952
     53  CA        49.2610   -1.9290    5.9170 C.3    71  SER71       0.1924
     54  C         47.8940   -1.2500    6.0070 C.2    71  SER71       0.2314
     55  O         46.9470   -1.6590    5.3350 O.2    71  SER71      -0.2863
     56  CB        50.0800   -1.3180    4.7770 C.3    71  SER71       0.2116
     57  OG        49.8040    0.0650    4.6180 O.3    71  SER71      -0.2180
     58  N         56.2710   -0.6210    1.2590 N.3    91  SER91      -0.1202
     59  CA        55.4840   -0.4720    2.4740 C.3    91  SER91       0.2020
     60  C         56.3120   -0.7330    3.7270 C.2    91  SER91       0.2619
     61  O         57.1410   -1.6490    3.7600 O.2    91  SER91      -0.2717
     62  CB        54.2700   -1.4000    2.4440 C.3    91  SER91       0.2103
     63  OG        53.4770   -1.2340    3.6090 O.3    91  SER91      -0.2182
     64  N         56.0700    0.0820    4.7530 N.am   92  ALA92      -0.1965
     65  CA        56.7090   -0.0850    6.0540 C.3    92  ALA92       0.1728
     66  C         55.6620   -0.2980    7.1480 C.2    92  ALA92       0.2616
     67  O         55.7700    0.2640    8.2420 O.2    92  ALA92      -0.2715
     68  CB        57.5910    1.1150    6.3670 C.3    92  ALA92       0.0334
     69  N         54.6480   -1.1080    6.8320 N.am   93  PHE93      -0.1974
     70  CA        53.5660   -1.4680    7.7660 C.3    93  PHE93       0.1639
     71  C         52.8470   -0.2440    8.3400 C.2    93  PHE93       0.2290
     72  O         52.2960   -0.3000    9.4420 O.2    93  PHE93      -0.2864
     73  CB        54.1170   -2.3550    8.8950 C.3    93  PHE93       0.0560
     74  CG        53.1400   -3.3780    9.4240 C.ar   93  PHE93      -0.0200
     75  CD1       53.0470   -3.6180   10.7960 C.ar   93  PHE93      -0.0042
     76  CD2       52.3270   -4.1130    8.5600 C.ar   93  PHE93      -0.0042
     77  CE1       52.1550   -4.5690   11.3030 C.ar   93  PHE93      -0.0003
     78  CE2       51.4280   -5.0640    9.0570 C.ar   93  PHE93      -0.0003
     79  CZ        51.3460   -5.2930   10.4320 C.ar   93  PHE93      -0.0000
@<TRIPOS>BOND
     1    35    33   ar
     2    35    36   ar
     3    46    47    1
     4    46    45    1
     5    33    32   ar
     6    47    41    1
     7    36    38   ar
     8    36    34   ar
     9    38    40   ar
    10    30    29    2
    11    45    42    1
    12    41    29   am
    13    41    42    1
    14    32    34   ar
    15    32    31    1
    16    29    28    1
    17    34    37   ar
    18    40    39   ar
    19    42    43    1
    20    31    28    1
    21    58    59    1
    22    28    27    1
    23    26    24    1
    24    43    44    2
    25    37    39   ar
    26    27    22   am
    27    62    59    1
    28    62    63    1
    29    59    60    1
    30    22    23    2
    31    22    21    1
    32    24    21    1
    33    24    25    1
    34    60    61    2
    35    60    64   am
    36    21    20    1
    37    57    56    1
    38    64    65    1
    39    56    53    1
    40    48    49    1
    41    20    16   am
    42    55    54    2
    43    17    16    2
    44    52    53    1
    45    52    50   am
    46    53    54    1
    47    16    15    1
    48    65    68    1
    49    65    66    1
    50    49    50    1
    51    50    51    2
    52    69    66   am
    53    69    70    1
    54    66    67    2
    55    15    14    1
    56    15    18    1
    57    19    18    1
    58    70    71    1
    59    70    73    1
    60     9    10    1
    61     9     6    1
    62     8     7    2
    63    14     7   am
    64     7     6    1
    65    71    72    2
    66    10    11    1
    67    76    78   ar
    68    76    74   ar
    69     6     5    1
    70    73    74    1
    71    78    79   ar
    72     5     3   am
    73    74    75   ar
    74    11    12    1
    75     1     2    1
    76    12    13    1
    77     3     2    1
    78     3     4    2
    79    79    77   ar
    80    75    77   ar
