@<TRIPOS>MOLECULE
tmp/2c2bD00.pdb
 102 103 0 0 0
SMALL
GASTEIGER

@<TRIPOS>ATOM
      1  N         47.0880    3.5870   16.7170 N.3    98  ASN98      -0.1225
      2  CA        46.1810    3.6160   17.8550 C.3    98  ASN98       0.1785
      3  C         45.1890    4.7640   17.8160 C.2    98  ASN98       0.2597
      4  O         45.5640    5.9280   17.6460 O.2    98  ASN98      -0.2718
      5  CB        47.0000    3.6930   19.1500 C.3    98  ASN98       0.1169
      6  CG        46.1490    3.5790   20.4100 C.2    98  ASN98       0.2627
      7  OD1       46.5720    4.0010   21.4840 O.2    98  ASN98      -0.2716
      8  ND2       44.9620    2.9960   20.2900 N.am   98  ASN98      -0.0877
      9  N         43.9160    4.4110   17.9630 N.am   99  LEU99      -0.1966
     10  CA        42.8770    5.3660   18.2910 C.3    99  LEU99       0.1728
     11  C         42.7760    5.3640   19.8150 C.2    99  LEU99       0.2616
     12  O         42.0190    4.5940   20.4070 O.2    99  LEU99      -0.2715
     13  CB        41.5590    4.9570   17.6300 C.3    99  LEU99       0.0311
     14  CG        40.4570    5.9790   17.3340 C.3    99  LEU99       0.0022
     15  CD1       40.9880    7.2610   16.6980 C.3    99  LEU99       0.0001
     16  CD2       39.4310    5.3370   16.4260 C.3    99  LEU99       0.0001
     17  N         43.5880    6.2150   20.4370 N.am  100  PHE100     -0.1960
     18  CA        43.7160    6.3150   21.8890 C.3   100  PHE100      0.1771
     19  C         42.4980    6.9770   22.5310 C.2   100  PHE100      0.2619
     20  O         42.1650    8.1270   22.2200 O.2   100  PHE100     -0.2715
     21  CB        44.9720    7.1280   22.2100 C.3   100  PHE100      0.0574
     22  CG        45.2980    7.2170   23.6730 C.ar  100  PHE100     -0.0200
     23  CD1       46.2330    6.3560   24.2400 C.ar  100  PHE100     -0.0042
     24  CD2       44.6970    8.1800   24.4800 C.ar  100  PHE100     -0.0042
     25  CE1       46.5510    6.4400   25.5960 C.ar  100  PHE100     -0.0003
     26  CE2       45.0000    8.2660   25.8390 C.ar  100  PHE100     -0.0003
     27  CZ        45.9300    7.3970   26.3970 C.ar  100  PHE100     -0.0000
     28  N         41.8470    6.2540   23.4380 N.am  101  TRP101     -0.1974
     29  CA        40.7370    6.8070   24.2040 C.3   101  TRP101      0.1640
     30  C         41.2560    7.7250   25.2970 C.2   101  TRP101      0.2290
     31  O         41.7870    7.2650   26.3080 O.2   101  TRP101     -0.2864
     32  CB        39.8710    5.6960   24.8090 C.3   101  TRP101      0.0576
     33  CG        38.6570    6.1920   25.5630 C.ar  101  TRP101      0.0006
     34  CD1       37.8910    7.2890   25.2640 C.ar  101  TRP101      0.0946
     35  CD2       38.0570    5.5910   26.7180 C.ar  101  TRP101      0.0152
     36  NE1       36.8660    7.4180   26.1730 N.ar  101  TRP101     -0.2442
     37  CE2       36.9370    6.3870   27.0720 C.ar  101  TRP101      0.0810
     38  CE3       38.3580    4.4620   27.4950 C.ar  101  TRP101      0.0012
     39  CZ2       36.1180    6.0900   28.1700 C.ar  101  TRP101      0.0191
     40  CZ3       37.5380    4.1640   28.5890 C.ar  101  TRP101      0.0001
     41  CH2       36.4280    4.9780   28.9100 C.ar  101  TRP101      0.0015
     42  N         33.6770   10.3540   25.4450 N.3   114  ASP114     -0.1239
     43  CA        33.9220    9.6980   24.1670 C.3   114  ASP114      0.1674
     44  C         34.8870   10.4980   23.2870 C.2   114  ASP114      0.2266
     45  O         34.6370   10.7230   22.0970 O.2   114  ASP114     -0.2867
     46  CB        32.5970    9.4440   23.4420 C.3   114  ASP114      0.1410
     47  CG        32.6690    8.2700   22.4820 C.2   114  ASP114      0.3668
     48  OD1       33.5630    7.4110   22.6290 O.co2 114  ASP114     -0.2456
     49  OD2       31.8140    8.1990   21.5800 O.co2 114  ASP114     -0.2456
     50  N         38.5430   10.7120   21.5390 N.3   116  TRP116     -0.1241
     51  CA        39.6280    9.8820   21.0380 C.3   116  TRP116      0.1605
     52  C         40.7060   10.7160   20.3490 C.2   116  TRP116      0.2264
     53  O         40.4130   11.7410   19.7290 O.2   116  TRP116     -0.2867
     54  CB        39.0890    8.8230   20.0750 C.3   116  TRP116      0.0550
     55  CG        38.0070    7.9710   20.6700 C.ar  116  TRP116      0.0003
     56  CD1       36.7050    8.3320   20.8880 C.ar  116  TRP116      0.0946
     57  CD2       38.1280    6.6170   21.1220 C.ar  116  TRP116      0.0152
     58  NE1       36.0120    7.2890   21.4500 N.ar  116  TRP116     -0.2442
     59  CE2       36.8570    6.2220   21.6030 C.ar  116  TRP116      0.0810
     60  CE3       39.1830    5.6970   21.1660 C.ar  116  TRP116      0.0012
     61  CZ2       36.6150    4.9490   22.1290 C.ar  116  TRP116      0.0191
     62  CZ3       38.9410    4.4270   21.6850 C.ar  116  TRP116      0.0001
     63  CH2       37.6680    4.0690   22.1630 C.ar  116  TRP116      0.0015
     64  N         37.9480    1.3050   12.6570 N.3   247  GLN247     -0.1231
     65  CA        38.2950    1.1400   14.0670 C.3   247  GLN247      0.1698
     66  C         37.0980    1.3320   15.0020 C.2   247  GLN247      0.2592
     67  O         37.1060    0.8350   16.1320 O.2   247  GLN247     -0.2718
     68  CB        39.4460    2.0740   14.4480 C.3   247  GLN247      0.0381
     69  CG        40.8050    1.6390   13.8840 C.3   247  GLN247      0.0905
     70  CD        41.9280    2.5930   14.2390 C.2   247  GLN247      0.2608
     71  OE1       41.7410    3.8110   14.2720 O.2   247  GLN247     -0.2717
     72  NE2       43.1100    2.0440   14.5000 N.am  247  GLN247     -0.0878
     73  N         36.0750    2.0440   14.5280 N.am  248  PHE248     -0.1962
     74  CA        34.8200    2.1750   15.2580 C.3   248  PHE248      0.1771
     75  C         33.7770    1.1880   14.7440 C.2   248  PHE248      0.2619
     76  O         32.5700    1.4300   14.8780 O.2   248  PHE248     -0.2715
     77  CB        34.2650    3.6000   15.1470 C.3   248  PHE248      0.0574
     78  CG        34.7860    4.5460   16.1870 C.ar  248  PHE248     -0.0200
     79  CD1       34.5640    4.3080   17.5410 C.ar  248  PHE248     -0.0042
     80  CD2       35.4770    5.6970   15.8110 C.ar  248  PHE248     -0.0042
     81  CE1       35.0410    5.1920   18.5040 C.ar  248  PHE248     -0.0003
     82  CE2       35.9600    6.5870   16.7640 C.ar  248  PHE248     -0.0003
     83  CZ        35.7440    6.3350   18.1150 C.ar  248  PHE248     -0.0000
     84  N         34.2410    0.0850   14.1580 N.am  249  ASP249     -0.1971
     85  CA        33.3650   -0.9200   13.5340 C.3   249  ASP249      0.1709
     86  C         32.3680   -0.2680   12.5700 C.2   249  ASP249      0.2293
     87  O         31.1620   -0.5360   12.6150 O.2   249  ASP249     -0.2864
     88  CB        32.6420   -1.7690   14.5920 C.3   249  ASP249      0.1436
     89  CG        33.5990   -2.4150   15.5800 C.2   249  ASP249      0.3671
     90  OD1       34.4980   -3.1700   15.1470 O.co2 249  ASP249     -0.2456
     91  OD2       33.4490   -2.1690   16.7950 O.co2 249  ASP249     -0.2456
     92  N         30.9450   11.7350   19.9410 N.3   373  ARG373     -0.1245
     93  CA        32.0890   10.9260   19.5190 C.3   373  ARG373      0.1563
     94  C         33.0660   11.7890   18.7280 C.2   373  ARG373      0.2260
     95  O         32.8140   12.1270   17.5650 O.2   373  ARG373     -0.2867
     96  CB        31.6400    9.7150   18.6920 C.3   373  ARG373      0.0307
     97  CG        32.7820    8.7820   18.2940 C.3   373  ARG373      0.0489
     98  CD        32.2730    7.4330   17.8060 C.3   373  ARG373      0.2205
     99  NE        31.9070    6.5510   18.9160 N.pl3 373  ARG373     -0.0865
    100  CZ        31.2570    5.3960   18.7870 C.cat 373  ARG373      0.5346
    101  NH1       30.8870    4.9580   17.5900 N.pl3 373  ARG373      0.1354
    102  NH2       30.9720    4.6730   19.8610 N.pl3 373  ARG373      0.1354
@<TRIPOS>BOND
     1    86    87    2
     2    86    85    1
     3    64    65    1
     4    85    84    1
     5    85    88    1
     6    69    70    1
     7    69    68    1
     8    65    68    1
     9    65    66    1
    10    84    75   am
    11    70    71    2
    12    70    72   am
    13    73    66   am
    14    73    74    1
    15    88    89    1
    16    75    76    2
    17    75    74    1
    18    66    67    2
    19    77    74    1
    20    77    78    1
    21    90    89   ar
    22    89    91   ar
    23    80    78   ar
    24    80    82   ar
    25    78    79   ar
    26    16    14    1
    27    15    14    1
    28     1     2    1
    29    82    83   ar
    30    14    13    1
    31    79    81   ar
    32    95    94    2
    33   101   100    1
    34    13    10    1
    35     4     3    2
    36    98    97    1
    37    98    99    1
    38     3     2    1
    39     3     9   am
    40     2     5    1
    41     9    10    1
    42    83    81   ar
    43    10    11    1
    44    97    96    1
    45    96    93    1
    46    94    93    1
    47   100    99    2
    48   100   102    1
    49     5     6    1
    50    93    92    1
    51    53    52    2
    52    11    12    2
    53    11    17   am
    54    54    55    1
    55    54    51    1
    56     8     6   am
    57    52    51    1
    58     6     7    2
    59    17    18    1
    60    55    56   ar
    61    55    57   ar
    62    56    58   ar
    63    51    50    1
    64    57    60   ar
    65    57    59   ar
    66    60    62   ar
    67    58    59   ar
    68    49    47   ar
    69    59    61   ar
    70    62    63   ar
    71    18    21    1
    72    18    19    1
    73    45    44    2
    74    61    63   ar
    75    21    22    1
    76    20    19    2
    77    47    48   ar
    78    47    46    1
    79    19    28   am
    80    44    43    1
    81    28    29    1
    82    46    43    1
    83    22    23   ar
    84    22    24   ar
    85    43    42    1
    86    29    32    1
    87    29    30    1
    88    23    25   ar
    89    24    26   ar
    90    32    33    1
    91    34    33   ar
    92    34    36   ar
    93    30    31    2
    94    33    35   ar
    95    25    27   ar
    96    26    27   ar
    97    36    37   ar
    98    35    37   ar
    99    35    38   ar
   100    37    39   ar
   101    38    40   ar
   102    39    41   ar
   103    40    41   ar
