@<TRIPOS>MOLECULE
tmp/2c2cA00.pdb
 236 228 0 0 0
SMALL
GASTEIGER

@<TRIPOS>ATOM
      1  N         37.1400  -10.3990   41.8500 N.3    10  VAL10      -0.1245
      2  CA        37.9700   -9.8000   40.8800 C.3    10  VAL10       0.1561
      3  C         37.9700   -8.2990   41.0600 C.2    10  VAL10       0.2260
      4  O         38.9900   -7.5800   40.9800 O.2    10  VAL10      -0.2867
      5  CB        37.6400  -10.1200   39.3700 C.3    10  VAL10       0.0252
      6  CG1       38.6600   -9.2890   38.4300 C.3    10  VAL10       0.0019
      7  CG2       37.8100  -11.5190   39.0400 C.3    10  VAL10       0.0019
      8  N         40.4400   -5.7600   42.7000 N.3    13  LYS13      -0.1231
      9  CA        41.4900   -5.2200   41.9200 C.3    13  LYS13       0.1693
     10  C         41.2500   -3.8300   41.5300 C.2    13  LYS13       0.2592
     11  O         42.1200   -3.1200   41.1000 O.2    13  LYS13      -0.2718
     12  CB        41.8700   -6.0600   40.7200 C.3    13  LYS13       0.0285
     13  CG        42.4400   -7.4000   41.3100 C.3    13  LYS13       0.0035
     14  CD        43.3100   -8.0600   40.1700 C.3    13  LYS13       0.0206
     15  CE        42.4300   -8.9490   39.3800 C.3    13  LYS13       0.1093
     16  NZ        43.2500  -10.1390   38.8200 N.3    13  LYS13      -0.1314
     17  N         40.0200   -3.3800   41.5100 N.am   14  CYS14      -0.1970
     18  CA        39.7400   -2.0000   41.1300 C.3    14  CYS14       0.1712
     19  C         39.6300   -1.0300   42.3400 C.2    14  CYS14       0.2296
     20  O         39.4400    0.1300   42.1700 O.2    14  CYS14      -0.2864
     21  CB        38.2700   -1.9500   40.5200 C.3    14  CYS14       0.0983
     22  SG        38.0000   -3.3500   39.3200 S.3    14  CYS14      -0.0798
     23  N         41.3300    0.2400   44.7200 N.3    16  ALA16      -0.1231
     24  CA        42.1200    1.4000   45.1900 C.3    16  ALA16       0.1694
     25  C         41.7100    2.6200   44.4600 C.2    16  ALA16       0.2592
     26  O         42.0500    3.6800   44.9300 O.2    16  ALA16      -0.2718
     27  CB        43.6000    1.0700   44.9000 C.3    16  ALA16       0.0304
     28  N         41.0900    2.4100   43.3200 N.am   17  CYS17      -0.1956
     29  CA        40.8100    3.6500   42.5200 C.3    17  CYS17       0.1843
     30  C         39.3400    3.9400   42.4600 C.2    17  CYS17       0.2625
     31  O         38.9100    5.0400   42.1000 O.2    17  CYS17      -0.2714
     32  CB        41.3000    3.5400   41.0700 C.3    17  CYS17       0.0997
     33  SG        43.1400    3.3300   41.1200 S.3    17  CYS17      -0.0797
     34  N         38.5200    2.9000   42.6000 N.am   18  HIS18      -0.1973
     35  CA        37.0900    3.1100   42.3700 C.3    18  HIS18       0.1656
     36  C         36.2300    2.6300   43.6000 C.2    18  HIS18       0.2291
     37  O         36.5100    1.6200   44.1900 O.2    18  HIS18      -0.2864
     38  CB        36.6500    2.2400   41.1500 C.3    18  HIS18       0.0771
     39  CG        37.1000    2.7500   39.7800 C.ar   18  HIS18       0.0820
     40  ND1       36.4200    3.7400   39.1300 N.ar   18  HIS18      -0.2267
     41  CD2       38.0200    2.1100   39.0300 C.ar   18  HIS18       0.1154
     42  CE1       37.0700    3.8200   38.0300 C.ar   18  HIS18       0.1986
     43  NE2       38.0700    2.9000   37.9100 N.ar   18  HIS18      -0.2212
     44  N         32.0100    1.3400   44.4300 N.3    20  PHE20      -0.1241
     45  CA        31.0300    0.6400   43.7800 C.3    20  PHE20       0.1605
     46  C         29.6500    0.8700   44.4000 C.2    20  PHE20       0.2264
     47  O         28.6000    0.3200   44.0000 O.2    20  PHE20      -0.2867
     48  CB        31.3300   -0.8600   43.8000 C.3    20  PHE20       0.0534
     49  CG        32.5000   -1.2000   42.9200 C.ar   20  PHE20      -0.0203
     50  CD1       33.8300   -1.4700   43.4300 C.ar   20  PHE20      -0.0042
     51  CD2       32.3700   -1.2800   41.5300 C.ar   20  PHE20      -0.0042
     52  CE1       34.7900   -1.8300   42.5900 C.ar   20  PHE20      -0.0003
     53  CE2       33.4800   -1.6800   40.7300 C.ar   20  PHE20      -0.0003
     54  CZ        34.7100   -1.8600   41.2400 C.ar   20  PHE20      -0.0000
     55  N         40.1700    8.0100   42.8900 N.3    28  VAL28      -0.1231
     56  CA        41.1200    8.3400   41.8800 C.3    28  VAL28       0.1692
     57  C         40.3100    8.3500   40.5400 C.2    28  VAL28       0.2593
     58  O         40.2900    9.3800   39.8700 O.2    28  VAL28      -0.2718
     59  CB        42.1400    7.3000   41.8300 C.3    28  VAL28       0.0266
     60  CG1       43.0300    7.3000   40.6100 C.3    28  VAL28       0.0020
     61  CG2       42.8800    7.1900   43.3000 C.3    28  VAL28       0.0020
     62  N         39.5800    7.2000   40.3000 N.am   29  GLY29      -0.1943
     63  CA        38.6300    7.1700   39.1900 C.3    29  GLY29       0.1998
     64  C         37.1300    7.4500   39.7200 C.2    29  GLY29       0.2480
     65  O         36.9600    7.5900   40.8800 O.2    29  GLY29      -0.2729
     66  N         36.1700    7.5600   38.7800 N.am   30  PRO30      -0.2726
     67  CA        34.8400    7.9100   39.1700 C.3    30  PRO30       0.1402
     68  C         34.2200    6.6900   39.8900 C.2    30  PRO30       0.2269
     69  O         34.5200    5.5600   39.6400 O.2    30  PRO30      -0.2865
     70  CB        34.1100    8.1500   37.8300 C.3    30  PRO30       0.0296
     71  CG        34.9600    7.2200   36.9900 C.3    30  PRO30       0.0237
     72  CD        36.3400    7.4900   37.3000 C.3    30  PRO30       0.0939
     73  N         31.5300    3.7400   40.2800 N.3    32  LEU32      -0.1301
     74  CA        31.1000    2.9700   39.1500 C.3    32  LEU32       0.1247
     75  C         29.7400    2.3800   39.4700 C.3    32  LEU32       0.2009
     76  O         29.3100    1.6100   38.6400 O.3    32  LEU32      -0.2188
     77  CB        32.1100    1.8300   38.9400 C.3    32  LEU32       0.0217
     78  CG        33.5100    2.3100   38.3500 C.3    32  LEU32       0.0015
     79  CD1       34.4400    1.0900   38.3800 C.3    32  LEU32       0.0000
     80  CD2       33.2700    2.9500   37.0700 C.3    32  LEU32       0.0000
     81  N         27.1600    2.0900   36.2100 N.3    35  VAL35      -0.1245
     82  CA        27.9300    2.3200   34.9800 C.3    35  VAL35       0.1561
     83  C         27.3900    1.5000   33.8100 C.2    35  VAL35       0.2260
     84  O         27.5000    1.8100   32.7000 O.2    35  VAL35      -0.2867
     85  CB        29.4900    2.1900   35.2300 C.3    35  VAL35       0.0252
     86  CG1       29.9500    0.8200   35.4400 C.3    35  VAL35       0.0019
     87  CG2       30.2600    2.8300   34.1100 C.3    35  VAL35       0.0019
     88  N         31.8400    8.6600   30.3400 N.3    41  ALA41      -0.1231
     89  CA        31.8800    9.9400   31.0800 C.3    41  ALA41       0.1694
     90  C         30.5500   10.1500   31.9200 C.2    41  ALA41       0.2592
     91  O         30.0000   11.2500   31.8500 O.2    41  ALA41      -0.2718
     92  CB        32.1500   11.1300   30.2600 C.3    41  ALA41       0.0304
     93  N         30.1600    9.0800   32.5600 N.am   42  HIS42      -0.1976
     94  CA        28.8100    9.0500   33.1500 C.3    42  HIS42       0.1656
     95  C         28.7100    9.8300   34.3900 C.2    42  HIS42       0.2291
     96  O         27.5600   10.2300   34.7200 O.2    42  HIS42      -0.2864
     97  CB        28.3100    7.6500   33.2700 C.3    42  HIS42       0.0771
     98  CG        28.9300    6.9100   34.4200 C.ar   42  HIS42       0.0820
     99  ND1       30.2900    6.5000   34.3800 N.ar   42  HIS42      -0.2267
    100  CD2       28.4900    6.4600   35.6000 C.ar   42  HIS42       0.1154
    101  CE1       30.5300    5.7700   35.5300 C.ar   42  HIS42       0.1986
    102  NE2       29.4100    5.7300   36.2600 N.ar   42  HIS42      -0.2212
    103  N         32.8100   14.2300   38.0500 N.3    46  TYR46      -0.1241
    104  CA        34.2100   13.7700   37.9600 C.3    46  TYR46       0.1605
    105  C         34.8200   14.4700   36.8300 C.2    46  TYR46       0.2264
    106  O         34.1100   14.7000   35.8400 O.2    46  TYR46      -0.2867
    107  CB        34.1500   12.2300   37.7500 C.3    46  TYR46       0.0534
    108  CG        35.5600   11.6600   37.6500 C.ar   46  TYR46      -0.0201
    109  CD1       36.1800   11.3100   38.7800 C.ar   46  TYR46      -0.0009
    110  CD2       36.2400   11.5800   36.4400 C.ar   46  TYR46      -0.0009
    111  CE1       37.5200   10.8800   38.7600 C.ar   46  TYR46       0.0417
    112  CE2       37.5100   11.0400   36.4100 C.ar   46  TYR46       0.0417
    113  CZ        38.2300   10.7700   37.5200 C.ar   46  TYR46       0.1957
    114  OH        39.5000   10.2900   37.5700 O.3    46  TYR46      -0.2866
    115  N         36.6800   13.9500   33.8200 N.3    48  TYR48      -0.1227
    116  CA        37.2800   12.9900   32.8800 C.3    48  TYR48       0.1736
    117  C         38.2500   13.5500   31.8700 C.2    48  TYR48       0.2596
    118  O         38.0900   14.7600   31.5300 O.2    48  TYR48      -0.2718
    119  CB        36.1300   12.4100   32.0600 C.3    48  TYR48       0.0548
    120  CG        35.2100   11.4500   32.7700 C.ar   48  TYR48      -0.0200
    121  CD1       35.5300   10.1200   32.9700 C.ar   48  TYR48      -0.0009
    122  CD2       34.0700   12.0200   33.3400 C.ar   48  TYR48      -0.0009
    123  CE1       34.6200    9.3600   33.7100 C.ar   48  TYR48       0.0417
    124  CE2       33.2200   11.2500   34.1300 C.ar   48  TYR48       0.0417
    125  CZ        33.4700    9.9000   34.1900 C.ar   48  TYR48       0.1957
    126  OH        32.5600    9.0400   34.7900 O.3    48  TYR48      -0.2866
    127  N         39.1300   12.7200   31.3500 N.am   49  SER49      -0.1952
    128  CA        40.0000   13.0500   30.1800 C.3    49  SER49       0.1924
    129  C         39.0500   13.4500   29.0100 C.2    49  SER49       0.2314
    130  O         37.9500   12.9100   28.9600 O.2    49  SER49      -0.2863
    131  CB        40.8000   11.8300   29.7100 C.3    49  SER49       0.2116
    132  OG        41.7700   11.6500   30.7500 O.3    49  SER49      -0.2180
    133  N         36.9100   10.7900   26.9200 N.3    52  TYR52      -0.1298
    134  CA        35.7100   10.1800   27.4100 C.3    52  TYR52       0.1290
    135  C         34.5200   11.0900   27.1500 C.3    52  TYR52       0.2013
    136  O         33.5700   10.4400   26.7100 O.3    52  TYR52      -0.2188
    137  CB        35.7300    9.9400   28.9900 C.3    52  TYR52       0.0480
    138  CG        36.7100    8.8000   29.3100 C.ar   52  TYR52      -0.0204
    139  CD1       36.3300    7.5300   29.7000 C.ar   52  TYR52      -0.0009
    140  CD2       38.1200    9.0600   29.2600 C.ar   52  TYR52      -0.0009
    141  CE1       37.2100    6.5600   29.9500 C.ar   52  TYR52       0.0417
    142  CE2       39.0400    8.0400   29.4600 C.ar   52  TYR52       0.0417
    143  CZ        38.6400    6.7700   29.8300 C.ar   52  TYR52       0.1957
    144  OH        39.5400    5.8300   30.1800 O.3    52  TYR52      -0.2866
    145  N         28.1600    1.9500   27.9600 N.3    62  TRP62      -0.1241
    146  CA        28.8700    0.7900   28.4400 C.3    62  TRP62       0.1605
    147  C         28.0700   -0.4900   28.3900 C.2    62  TRP62       0.2264
    148  O         27.7500   -1.1800   29.3300 O.2    62  TRP62      -0.2867
    149  CB        29.4700    1.0700   29.8400 C.3    62  TRP62       0.0550
    150  CG        30.4400    2.2000   29.9800 C.ar   62  TRP62       0.0003
    151  CD1       30.2500    3.4100   30.7000 C.ar   62  TRP62       0.0946
    152  CD2       31.7200    2.2200   29.3700 C.ar   62  TRP62       0.0152
    153  NE1       31.3900    4.1300   30.4700 N.ar   62  TRP62      -0.2442
    154  CE2       32.3200    3.4400   29.7800 C.ar   62  TRP62       0.0810
    155  CE3       32.3900    1.2500   28.5900 C.ar   62  TRP62       0.0012
    156  CZ2       33.6000    3.8400   29.3300 C.ar   62  TRP62       0.0191
    157  CZ3       33.6800    1.7100   28.1500 C.ar   62  TRP62       0.0001
    158  CH2       34.2200    2.9500   28.5000 C.ar   62  TRP62       0.0015
    159  N         32.3900   -2.6700   27.5800 N.3    67  LEU67      -0.1245
    160  CA        33.2600   -2.8700   28.8100 C.3    67  LEU67       0.1561
    161  C         34.3300   -3.8600   28.6200 C.2    67  LEU67       0.2260
    162  O         35.4200   -3.7500   29.0300 O.2    67  LEU67      -0.2867
    163  CB        32.2200   -3.2900   29.8700 C.3    67  LEU67       0.0270
    164  CG        31.4300   -2.1200   30.3600 C.3    67  LEU67       0.0019
    165  CD1       30.2700   -2.6600   31.1900 C.3    67  LEU67       0.0001
    166  CD2       32.1500   -1.1900   31.2900 C.3    67  LEU67       0.0001
    167  N         37.2000   -2.3600   26.6100 N.3    70  TYR70      -0.1227
    168  CA        37.8600   -1.3300   27.3800 C.3    70  TYR70       0.1736
    169  C         38.7500   -1.9200   28.4700 C.2    70  TYR70       0.2595
    170  O         39.7900   -1.3500   28.6800 O.2    70  TYR70      -0.2718
    171  CB        36.7600   -0.5000   28.0800 C.3    70  TYR70       0.0548
    172  CG        37.3300    0.5500   28.9800 C.ar   70  TYR70      -0.0200
    173  CD1       37.9000    1.7600   28.5400 C.ar   70  TYR70      -0.0009
    174  CD2       37.1600    0.5500   30.3600 C.ar   70  TYR70      -0.0009
    175  CE1       38.3700    2.7900   29.2500 C.ar   70  TYR70       0.0417
    176  CE2       37.6500    1.5400   31.1700 C.ar   70  TYR70       0.0417
    177  CZ        38.1000    2.7400   30.6100 C.ar   70  TYR70       0.1957
    178  OH        38.5100    3.7300   31.4600 O.3    70  TYR70      -0.2866
    179  N         38.2400   -2.8500   29.2300 N.am   71  VAL71      -0.1980
    180  CA        39.0300   -3.1500   30.4700 C.3    71  VAL71       0.1595
    181  C         40.2500   -3.9900   30.0500 C.2    71  VAL71       0.2287
    182  O         41.1900   -4.0900   30.8400 O.2    71  VAL71      -0.2864
    183  CB        38.2600   -3.9800   31.5000 C.3    71  VAL71       0.0276
    184  CG1       37.1000   -3.1000   31.9900 C.3    71  VAL71       0.0022
    185  CG2       37.8200   -5.3500   31.0600 C.3    71  VAL71       0.0022
    186  N         43.4500    8.3900   31.9100 N.3    90  LYS90      -0.1231
    187  CA        44.1700    8.3000   33.2100 C.3    90  LYS90       0.1693
    188  C         44.0300    6.9500   33.7800 C.2    90  LYS90       0.2588
    189  O         44.7000    6.6800   34.7700 O.2    90  LYS90      -0.2718
    190  CB        43.4300    9.2800   34.1600 C.3    90  LYS90       0.0285
    191  CG        43.9200   10.6500   33.8300 C.3    90  LYS90       0.0035
    192  CD        43.4200   11.9100   34.3100 C.3    90  LYS90       0.0206
    193  CE        42.0700   12.4300   34.0700 C.3    90  LYS90       0.1093
    194  NZ        41.8500   13.9800   34.5700 N.3    90  LYS90      -0.1314
    195  N         43.2700    5.9800   33.2300 N.am   91  MET91      -0.2033
    196  CA        43.1900    4.6300   33.7400 C.3    91  MET91       0.1291
    197  C         44.4600    3.6900   33.5900 C.3    91  MET91       0.2036
    198  O         45.3500    3.4700   34.7000 O.3    91  MET91      -0.2185
    199  CB        41.8700    3.9800   33.6100 C.3    91  MET91       0.0360
    200  CG        41.8900    2.5400   34.0000 C.3    91  MET91       0.0594
    201  SD        40.0900    2.0500   34.1300 S.3    91  MET91      -0.1393
    202  CE        40.3500    0.3000   34.0800 C.3    91  MET91       0.0692
    203  N         45.5800    0.7000   34.0800 N.3    93  PHE93      -0.1298
    204  CA        45.3700   -0.6400   34.6000 C.3    93  PHE93       0.1290
    205  C         44.6300   -1.5500   33.5800 C.3    93  PHE93       0.2013
    206  O         43.5900   -1.0200   33.2300 O.3    93  PHE93      -0.2188
    207  CB        44.4800   -0.6500   35.8900 C.3    93  PHE93       0.0480
    208  CG        44.1400   -1.9800   36.5100 C.ar   93  PHE93      -0.0206
    209  CD1       43.0100   -2.6700   36.3300 C.ar   93  PHE93      -0.0042
    210  CD2       45.2000   -2.4900   37.2600 C.ar   93  PHE93      -0.0042
    211  CE1       42.8200   -4.0000   36.7900 C.ar   93  PHE93      -0.0003
    212  CE2       44.9700   -3.7400   37.9000 C.ar   93  PHE93      -0.0003
    213  CZ        43.7500   -4.4900   37.6200 C.ar   93  PHE93      -0.0000
    214  N         42.8400   -5.6300   32.7500 N.3    95  LEU95      -0.1245
    215  CA        42.5700   -7.0300   33.0200 C.3    95  LEU95       0.1561
    216  C         43.0700   -7.8500   31.8000 C.2    95  LEU95       0.2260
    217  O         42.7300   -7.4800   30.6900 O.2    95  LEU95      -0.2867
    218  CB        41.1500   -7.2400   33.4500 C.3    95  LEU95       0.0270
    219  CG        40.5600   -7.0200   34.7500 C.3    95  LEU95       0.0019
    220  CD1       39.1700   -7.3600   34.7200 C.3    95  LEU95       0.0001
    221  CD2       41.3400   -7.7400   35.8100 C.3    95  LEU95       0.0001
    222  N         33.9000   -9.9390   35.9800 N.3   104  VAL104     -0.1245
    223  CA        33.7600   -8.4990   36.4500 C.3   104  VAL104      0.1561
    224  C         32.5700   -7.8290   35.8700 C.2   104  VAL104      0.2260
    225  O         31.8600   -6.9600   36.4500 O.2   104  VAL104     -0.2867
    226  CB        34.9900   -7.5300   36.1600 C.3   104  VAL104      0.0252
    227  CG1       35.0300   -6.6600   37.4700 C.3   104  VAL104      0.0019
    228  CG2       36.1100   -8.3690   36.2700 C.3   104  VAL104      0.0019
    229  N         29.3800   -5.9400   37.4000 N.3   108  LEU108     -0.1301
    230  CA        28.9800   -4.6100   37.1900 C.3   108  LEU108      0.1247
    231  C         27.4100   -4.6200   36.7700 C.3   108  LEU108      0.2009
    232  O         26.8300   -3.5300   37.0000 O.3   108  LEU108     -0.2188
    233  CB        29.7600   -3.9600   36.1000 C.3   108  LEU108      0.0217
    234  CG        31.1900   -3.7200   36.5100 C.3   108  LEU108      0.0015
    235  CD1       32.0700   -3.3100   35.3500 C.3   108  LEU108      0.0000
    236  CD2       31.1800   -2.7700   37.6300 C.3   108  LEU108      0.0000
@<TRIPOS>BOND
     1   167   168    1
     2   136   135    1
     3   133   134    1
     4   135   134    1
     5   168   171    1
     6   168   169    1
     7   134   137    1
     8   159   160    1
     9   145   146    1
    10   171   172    1
    11   157   158   ar
    12   157   155   ar
    13   147   146    1
    14   147   148    2
    15   146   149    1
    16   169   170    2
    17   169   179   am
    18   158   156   ar
    19   173   172   ar
    20   173   175   ar
    21   155   152   ar
    22   161   160    1
    23   161   162    2
    24   160   163    1
    25   130   129    2
    26   172   174   ar
    27   137   138    1
    28   129   128    1
    29   179   180    1
    30   175   177   ar
    31   140   138   ar
    32   140   142   ar
    33   138   139   ar
    34   156   154   ar
    35   152   154   ar
    36   152   150   ar
    37   142   143   ar
    38   139   141   ar
    39   131   128    1
    40   131   132    1
    41   154   153   ar
    42   143   141   ar
    43   143   144    1
    44   149   150    1
    45   163   164    1
    46   150   151   ar
    47   181   180    1
    48   181   182    2
    49   128   127    1
    50    92    89    1
    51    88    89    1
    52   164   165    1
    53   164   166    1
    54   174   176   ar
    55   153   151   ar
    56   180   183    1
    57   177   176   ar
    58   177   178    1
    59   217   216    2
    60   185   183    1
    61    89    90    1
    62   127   117   am
    63   183   184    1
    64   118   117    2
    65   216   215    1
    66    91    90    2
    67   117   116    1
    68   186   187    1
    69    90    93   am
    70   119   120    1
    71   119   116    1
    72    93    94    1
    73    84    83    2
    74   214   215    1
    75   120   121   ar
    76   120   122   ar
    77   116   115    1
    78   121   123   ar
    79   215   218    1
    80    94    97    1
    81    94    95    1
    82   187   188    1
    83   187   190    1
    84   206   205    1
    85   195   196    1
    86   195   188   am
    87    97    98    1
    88   122   124   ar
    89   218   219    1
    90   205   204    1
    91   197   196    1
    92   197   198    1
    93   199   196    1
    94   199   200    1
    95   123   125   ar
    96   188   189    2
    97    83    82    1
    98   191   190    1
    99   191   192    1
   100   200   201    1
   101   193   192    1
   102   193   194    1
   103   203   204    1
   104   202   201    1
   105    87    85    1
   106   124   125   ar
   107   125   126    1
   108    99    98   ar
   109    99   101   ar
   110    95    96    2
   111    98   100   ar
   112   204   207    1
   113   220   219    1
   114   219   221    1
   115    82    85    1
   116    82    81    1
   117    85    86    1
   118   235   234    1
   119   101   102   ar
   120   100   102   ar
   121   106   105    2
   122   224   223    1
   123   224   225    2
   124   207   208    1
   125   222   223    1
   126   233   234    1
   127   233   230    1
   128   226   228    1
   129   226   223    1
   130   226   227    1
   131   209   208   ar
   132   209   211   ar
   133   112   110   ar
   134   112   113   ar
   135   110   108   ar
   136   234   236    1
   137   208   210   ar
   138   231   232    1
   139   231   230    1
   140   211   213   ar
   141   105   104    1
   142    71    72    1
   143    71    70    1
   144    80    78    1
   145   230   229    1
   146   210   212   ar
   147    72    66    1
   148   113   114    1
   149   113   111   ar
   150   213   212   ar
   151   108   107    1
   152   108   109   ar
   153   107   104    1
   154    70    67    1
   155    43    42   ar
   156    43    41   ar
   157   104   103    1
   158    42    40   ar
   159    78    79    1
   160    78    77    1
   161     6     5    1
   162    76    75    1
   163   111   109   ar
   164    66    67    1
   165    66    64   am
   166    16    15    1
   167    77    74    1
   168    41    39   ar
   169     7     5    1
   170    40    39   ar
   171    74    75    1
   172    74    73    1
   173    67    68    1
   174    63    64    1
   175    63    62    1
   176    22    21    1
   177     5     2    1
   178    15    14    1
   179    69    68    2
   180    64    65    2
   181    39    38    1
   182    58    57    2
   183    14    13    1
   184    62    57   am
   185    21    18    1
   186    57    56    1
   187    60    59    1
   188    12    13    1
   189    12     9    1
   190    53    54   ar
   191    53    51   ar
   192     2     3    1
   193     2     1    1
   194     4     3    2
   195    32    33    1
   196    32    29    1
   197    11    10    2
   198    18    17    1
   199    18    19    1
   200    38    35    1
   201    54    52   ar
   202    17    10   am
   203    10     9    1
   204    51    49   ar
   205    59    56    1
   206    59    61    1
   207    56    55    1
   208     9     8    1
   209    31    30    2
   210    20    19    2
   211    35    34    1
   212    35    36    1
   213    30    29    1
   214    30    34   am
   215    29    28    1
   216    52    50   ar
   217    49    50   ar
   218    49    48    1
   219    28    25   am
   220    36    37    2
   221    45    48    1
   222    45    46    1
   223    45    44    1
   224    47    46    2
   225    25    26    2
   226    25    24    1
   227    23    24    1
   228    27    24    1
