@<TRIPOS>MOLECULE
tmp/2c2dA01.pdb
 75 67 0 0 0
SMALL
GASTEIGER

@<TRIPOS>ATOM
      1  N        -31.9320   -8.8900    8.5770 N.3     7  ASP7       -0.1239
      2  CA       -30.5100   -9.1730    8.4520 C.3     7  ASP7        0.1674
      3  C        -29.8000   -8.0330    7.6940 C.2     7  ASP7        0.2266
      4  O        -30.0530   -7.8360    6.5000 O.2     7  ASP7       -0.2867
      5  CB       -30.3150  -10.4740    7.6910 C.3     7  ASP7        0.1410
      6  CG       -28.8980  -10.9470    7.7420 C.2     7  ASP7        0.3668
      7  OD1      -28.5740  -11.9760    7.1340 O.co2   7  ASP7       -0.2456
      8  OD2      -28.0970  -10.2800    8.4120 O.co2   7  ASP7       -0.2456
      9  N        -30.0350  -12.0010   17.7430 N.3   102  ALA102     -0.1231
     10  CA       -29.1500  -13.1350   17.5430 C.3   102  ALA102      0.1694
     11  C        -27.6690  -12.7700   17.4390 C.2   102  ALA102      0.2592
     12  O        -26.8290  -13.4630   18.0010 O.2   102  ALA102     -0.2718
     13  CB       -29.5950  -13.8910   16.3240 C.3   102  ALA102      0.0304
     14  N        -27.3390  -11.7030   16.7180 N.am  103  SER103     -0.1952
     15  CA       -25.9400  -11.2870   16.5930 C.3   103  SER103      0.1924
     16  C        -25.8250   -9.8130   16.2790 C.2   103  SER103      0.2314
     17  O        -26.8130   -9.0820   16.2570 O.2   103  SER103     -0.2863
     18  CB       -25.1990  -12.0840   15.5080 C.3   103  SER103      0.2116
     19  OG       -25.5280  -11.6630   14.1900 O.3   103  SER103     -0.2180
     20  N        -25.6610   -8.5250   13.6980 N.3   105  ASP105     -0.1225
     21  CA       -26.3770   -8.1370   12.5000 C.3   105  ASP105      0.1805
     22  C        -27.6850   -8.8580   12.2040 C.2   105  ASP105      0.2597
     23  O        -28.1640   -8.8190   11.0740 O.2   105  ASP105     -0.2718
     24  CB       -25.4470   -8.2870   11.3070 C.3   105  ASP105      0.1424
     25  CG       -25.4980   -9.6590   10.7100 C.2   105  ASP105      0.3668
     26  OD1      -25.6570  -10.6490   11.4530 O.co2 105  ASP105     -0.2456
     27  OD2      -25.3600   -9.7530    9.4830 O.co2 105  ASP105     -0.2456
     28  N        -28.2640   -9.4980   13.2100 N.am  106  GLU106     -0.1979
     29  CA       -29.4960  -10.2430   13.0230 C.3   106  GLU106      0.1602
     30  C        -30.4460  -10.0560   14.1660 C.2   106  GLU106      0.2287
     31  O        -30.0220   -9.8360   15.2980 O.2   106  GLU106     -0.2864
     32  CB       -29.2220  -11.7260   12.9610 C.3   106  GLU106      0.0415
     33  CG       -28.4180  -12.1980   11.8160 C.3   106  GLU106      0.1163
     34  CD       -28.5570  -13.6890   11.6630 C.2   106  GLU106      0.3649
     35  OE1      -28.8050  -14.3610   12.6830 O.co2 106  GLU106     -0.2457
     36  OE2      -28.4260  -14.1930   10.5340 O.co2 106  GLU106     -0.2457
     37  N        -35.5730  -17.2650    8.4840 N.3   152  LYS152     -0.1245
     38  CA       -34.1890  -17.0170    8.1120 C.3   152  LYS152      0.1561
     39  C        -33.9730  -17.5380    6.7130 C.2   152  LYS152      0.2260
     40  O        -33.5080  -16.8260    5.8350 O.2   152  LYS152     -0.2867
     41  CB       -33.2390  -17.7020    9.0810 C.3   152  LYS152      0.0271
     42  CG       -31.7890  -17.2800    8.9100 C.3   152  LYS152      0.0035
     43  CD       -30.8990  -18.1750    9.7640 C.3   152  LYS152      0.0206
     44  CE       -29.9760  -17.3960   10.7060 C.3   152  LYS152      0.1093
     45  NZ       -28.8040  -16.8410    9.9950 N.3   152  LYS152     -0.1314
     46  N        -32.3840  -15.5050    3.5750 N.3   156  ASP156     -0.1239
     47  CA       -31.1810  -15.9220    2.8630 C.3   156  ASP156      0.1674
     48  C        -31.4260  -15.8970    1.3580 C.2   156  ASP156      0.2266
     49  O        -30.6400  -15.3480    0.5980 O.2   156  ASP156     -0.2867
     50  CB       -30.7370  -17.3220    3.3030 C.3   156  ASP156      0.1410
     51  CG       -29.8230  -17.3010    4.5360 C.2   156  ASP156      0.3668
     52  OD1      -29.4300  -16.2040    4.9880 O.co2 156  ASP156     -0.2456
     53  OD2      -29.4870  -18.3940    5.0500 O.co2 156  ASP156     -0.2456
     54  N        -31.9200  -12.1830   -0.3780 N.3   159  LYS159     -0.1245
     55  CA       -30.9450  -11.1080   -0.2720 C.3   159  LYS159      0.1561
     56  C        -30.2780  -10.9220   -1.6250 C.2   159  LYS159      0.2260
     57  O        -30.3270  -11.8170   -2.4670 O.2   159  LYS159     -0.2867
     58  CB       -29.9100  -11.4000    0.8270 C.3   159  LYS159      0.0271
     59  CG       -29.0850  -12.6560    0.6360 C.3   159  LYS159      0.0035
     60  CD       -27.9860  -12.7590    1.6980 C.3   159  LYS159      0.0206
     61  CE       -28.5620  -12.7760    3.1110 C.3   159  LYS159      0.1093
     62  NZ       -27.5430  -13.0960    4.1670 N.3   159  LYS159     -0.1314
     63  N        -27.8200  -23.5930   11.0940 N.3   185  GLY185     -0.1225
     64  CA       -27.2670  -24.4660   12.1110 C.3   185  GLY185      0.1811
     65  C        -26.4390  -25.6230   11.5750 C.2   185  GLY185      0.2280
     66  O        -25.6690  -26.2430   12.3120 O.2   185  GLY185     -0.2866
     67  N        -28.9270  -32.1980   17.4120 N.3   221  LYS221     -0.1245
     68  CA       -28.9880  -31.8430   16.0030 C.3   221  LYS221      0.1561
     69  C        -30.0430  -32.7080   15.3060 C.2   221  LYS221      0.2260
     70  O        -30.8670  -32.2100   14.5300 O.2   221  LYS221     -0.2867
     71  CB       -27.6230  -32.0820   15.3670 C.3   221  LYS221      0.0271
     72  CG       -27.3610  -31.2590   14.1450 C.3   221  LYS221      0.0035
     73  CD       -26.9690  -29.8520   14.5270 C.3   221  LYS221      0.0206
     74  CE       -25.5770  -29.8080   15.1740 C.3   221  LYS221      0.1093
     75  NZ       -25.0910  -28.4190   15.4710 N.3   221  LYS221     -0.1314
@<TRIPOS>BOND
     1    57    56    2
     2    56    55    1
     3    54    55    1
     4    55    58    1
     5    49    48    2
     6    59    58    1
     7    59    60    1
     8    48    47    1
     9    60    61    1
    10    47    50    1
    11    47    46    1
    12    61    62    1
    13    50    51    1
    14    51    52   ar
    15    51    53   ar
    16    40    39    2
    17     4     3    2
    18    39    38    1
    19     7     6   ar
    20     5     6    1
    21     5     2    1
    22     3     2    1
    23     6     8   ar
    24    38    37    1
    25    38    41    1
    26     2     1    1
    27    42    41    1
    28    42    43    1
    29    27    25   ar
    30    43    44    1
    31    45    44    1
    32    36    34   ar
    33    25    24    1
    34    25    26   ar
    35    23    22    2
    36    63    64    1
    37    24    21    1
    38    65    64    1
    39    65    66    2
    40    34    33    1
    41    34    35   ar
    42    33    32    1
    43    22    21    1
    44    22    28   am
    45    21    20    1
    46    32    29    1
    47    29    28    1
    48    29    30    1
    49    72    73    1
    50    72    71    1
    51    30    31    2
    52    19    18    1
    53    73    74    1
    54    70    69    2
    55    74    75    1
    56    69    68    1
    57    71    68    1
    58    18    15    1
    59    68    67    1
    60    17    16    2
    61    16    15    1
    62    13    10    1
    63    15    14    1
    64    14    11   am
    65    11    10    1
    66    11    12    2
    67    10     9    1
