@<TRIPOS>MOLECULE
tmp/2c2gA00.pdb
 117 110 0 0 0
SMALL
GASTEIGER

@<TRIPOS>ATOM
      1  N         -5.2580   -0.5420    9.0100 N.3   145  PHE145     -0.1227
      2  CA        -4.2520   -0.5540   10.0390 C.3   145  PHE145      0.1736
      3  C         -4.4800   -1.7410   10.9710 C.2   145  PHE145      0.2595
      4  O         -3.5250   -2.2620   11.5710 O.2   145  PHE145     -0.2718
      5  CB        -4.5490    0.7380   10.7410 C.3   145  PHE145      0.0547
      6  CG        -3.8190    0.9930   12.0300 C.ar  145  PHE145     -0.0202
      7  CD1       -2.4310    1.3520   12.0530 C.ar  145  PHE145     -0.0042
      8  CD2       -4.5140    0.8920   13.2560 C.ar  145  PHE145     -0.0042
      9  CE1       -1.6990    1.6130   13.3180 C.ar  145  PHE145     -0.0003
     10  CE2       -3.7940    1.1500   14.5060 C.ar  145  PHE145     -0.0003
     11  CZ        -2.3620    1.5160   14.5260 C.ar  145  PHE145     -0.0000
     12  N         -5.7320   -2.1780   11.1060 N.am  146  LYS146     -0.1980
     13  CA        -6.0690   -3.2980   11.9400 C.3   146  LYS146      0.1596
     14  C         -5.3490   -4.6070   11.6910 C.2   146  LYS146      0.2287
     15  O         -5.4800   -5.5100   12.5290 O.2   146  LYS146     -0.2864
     16  CB        -7.5460   -3.5930   11.9130 C.3   146  LYS146      0.0298
     17  CG        -8.5140   -2.7000   12.6740 C.3   146  LYS146      0.0038
     18  CD        -8.5670   -1.2850   12.3650 C.3   146  LYS146      0.0206
     19  CE        -9.7690   -0.7360   13.0950 C.3   146  LYS146      0.1093
     20  NZ        -9.6280   -1.0450   14.4660 N.3   146  LYS146     -0.1314
     21  N        -18.3000   -6.8430   16.1240 N.3   174  SER174     -0.1202
     22  CA       -18.0000   -5.7050   15.2500 C.3   174  SER174      0.2020
     23  C        -18.3520   -5.8320   13.8210 C.2   174  SER174      0.2619
     24  O        -18.2540   -6.9000   13.2480 O.2   174  SER174     -0.2717
     25  CB       -16.4630   -5.5610   15.2460 C.3   174  SER174      0.2103
     26  OG       -15.9600   -4.7090   14.1640 O.3   174  SER174     -0.2182
     27  N        -18.7650   -4.7330   13.2190 N.am  175  THR175     -0.1938
     28  CA       -19.1410   -4.7920   11.7970 C.3   175  THR175      0.2028
     29  C        -18.2110   -3.9860   10.9100 C.2   175  THR175      0.2643
     30  O        -18.5880   -3.6370    9.7790 O.2   175  THR175     -0.2714
     31  CB       -20.6180   -4.3410   11.5940 C.3   175  THR175      0.1808
     32  OG1      -20.8010   -3.0130   12.1190 O.3   175  THR175     -0.2208
     33  CG2      -21.4950   -5.2430   12.3640 C.3   175  THR175      0.0379
     34  N        -17.0140   -3.6970   11.4160 N.am  176  GLY176     -0.1939
     35  CA       -16.0210   -2.9140   10.6800 C.3   176  GLY176      0.2014
     36  C        -14.6960   -3.5640   10.3750 C.2   176  GLY176      0.2639
     37  O        -14.6130   -4.7680   10.0660 O.2   176  GLY176     -0.2714
     38  N        -13.6510   -2.7570   10.4660 N.am  177  ASP177     -0.1957
     39  CA       -12.3080   -3.1850   10.1940 C.3   177  ASP177      0.1840
     40  C        -11.7450   -4.2580   11.1140 C.2   177  ASP177      0.2622
     41  O        -11.0160   -5.1650   10.6510 O.2   177  ASP177     -0.2715
     42  CB       -11.3850   -1.9880   10.2100 C.3   177  ASP177      0.1450
     43  CG       -11.7410   -0.9370    9.1730 C.2   177  ASP177      0.3671
     44  OD1      -12.5620   -1.1940    8.2410 O.co2 177  ASP177     -0.2456
     45  OD2      -11.1590    0.1670    9.3260 O.co2 177  ASP177     -0.2456
     46  N        -12.0600   -4.1780   12.3930 N.am  178  THR178     -0.1951
     47  CA       -11.5650   -5.1830   13.3300 C.3   178  THR178      0.1897
     48  C        -12.1230   -6.5520   12.9880 C.2   178  THR178      0.2313
     49  O        -11.4040   -7.5480   12.9840 O.2   178  THR178     -0.2863
     50  CB       -12.1010   -4.9520   14.7510 C.3   178  THR178      0.1794
     51  OG1      -11.7340   -3.6390   15.2330 O.3   178  THR178     -0.2208
     52  CG2      -11.5960   -6.0410   15.6790 C.3   178  THR178      0.0378
     53  N        -12.3200   -4.1240   21.5690 N.3   245  SER245     -0.1217
     54  CA       -11.6510   -2.8640   21.3060 C.3   245  SER245      0.1889
     55  C        -10.5290   -2.6330   22.3300 C.2   245  SER245      0.2288
     56  O         -9.4590   -2.1610   21.9970 O.2   245  SER245     -0.2866
     57  CB       -12.6620   -1.7130   21.4180 C.3   245  SER245      0.2089
     58  OG       -13.6940   -1.8660   20.4600 O.3   245  SER245     -0.2183
     59  N         -3.4170   -6.1460   20.6530 N.3   250  ARG250     -0.1231
     60  CA        -3.4720   -5.5160   19.3220 C.3   250  ARG250      0.1694
     61  C         -2.4740   -4.3130   19.3610 C.2   250  ARG250      0.2591
     62  O         -1.7830   -4.0520   18.4300 O.2   250  ARG250     -0.2718
     63  CB        -4.7690   -4.7550   19.1500 C.3   250  ARG250      0.0321
     64  CG        -6.0960   -5.4190   19.4120 C.3   250  ARG250      0.0489
     65  CD        -7.1890   -4.3150   19.6000 C.3   250  ARG250      0.2205
     66  NE        -7.6360   -3.6250   18.4130 N.pl3 250  ARG250     -0.0865
     67  CZ        -8.7550   -3.9940   17.7810 C.cat 250  ARG250      0.5346
     68  NH1       -9.4610   -5.0150   18.2640 N.pl3 250  ARG250      0.1354
     69  NH2       -9.1830   -3.3680   16.6830 N.pl3 250  ARG250      0.1354
     70  N         -2.4080   -3.5780   20.4520 N.am  251  LEU251     -0.1980
     71  CA        -1.4890   -2.4540   20.5330 C.3   251  LEU251      0.1596
     72  C         -0.0180   -2.8130   20.2950 C.2   251  LEU251      0.2287
     73  O          0.7670   -1.9730   19.8650 O.2   251  LEU251     -0.2864
     74  CB        -1.5990   -1.7580   21.8890 C.3   251  LEU251      0.0297
     75  CG        -3.0780   -1.3740   22.2180 C.3   251  LEU251      0.0022
     76  CD1       -3.0820   -0.6100   23.5640 C.3   251  LEU251      0.0001
     77  CD2       -3.8710   -0.5470   21.1200 C.3   251  LEU251      0.0001
     78  N          0.2660   -2.6370   16.4580 N.3   254  GLN254     -0.1245
     79  CA         0.0890   -1.2730   15.9680 C.3   254  GLN254      0.1566
     80  C          1.2740   -0.3970   16.3330 C.2   254  GLN254      0.2260
     81  O          1.5860    0.5730   15.6440 O.2   254  GLN254     -0.2867
     82  CB        -1.2140   -0.6640   16.5240 C.3   254  GLN254      0.0367
     83  CG        -2.5180   -1.4430   16.0640 C.3   254  GLN254      0.0905
     84  CD        -3.8700   -0.9480   16.6340 C.2   254  GLN254      0.2608
     85  OE1       -3.9750    0.1250   17.2490 O.2   254  GLN254     -0.2717
     86  NE2       -4.9320   -1.7640   16.4140 N.am  254  GLN254     -0.0878
     87  N        -10.8470    5.7940   17.1690 N.3   279  ASN279     -0.1240
     88  CA       -10.3270    4.8150   18.1630 C.3   279  ASN279      0.1653
     89  C         -9.1240    5.3180   18.9010 C.2   279  ASN279      0.2266
     90  O         -8.0280    5.3870   18.3750 O.2   279  ASN279     -0.2867
     91  CB       -10.0210    3.5300   17.4010 C.3   279  ASN279      0.1155
     92  CG       -11.2750    2.9820   16.7500 C.2   279  ASN279      0.2627
     93  OD1      -12.2630    2.6260   17.4460 O.2   279  ASN279     -0.2716
     94  ND2      -11.2590    2.9020   15.4010 N.am  279  ASN279     -0.0877
     95  N         -6.9710    4.1120   20.9510 N.3   281  GLY281     -0.1210
     96  CA        -5.7490    3.3060   21.1560 C.3   281  GLY281      0.1956
     97  C         -4.7210    3.5600   20.0160 C.2   281  GLY281      0.2611
     98  O         -3.4870    3.4830   20.2050 O.2   281  GLY281     -0.2717
     99  N         -5.2270    3.8670   18.8230 N.am  282  ASN282     -0.1974
    100  CA        -4.3300    4.1170   17.7300 C.3   282  ASN282      0.1688
    101  C         -3.2160    5.1170   18.1650 C.2   282  ASN282      0.2292
    102  O         -2.0200    4.8460   17.9770 O.2   282  ASN282     -0.2864
    103  CB        -5.0520    4.7100   16.5400 C.3   282  ASN282      0.1181
    104  CG        -6.1800    3.8380   15.9870 C.2   282  ASN282      0.2629
    105  OD1       -7.0600    4.3410   15.2100 O.2   282  ASN282     -0.2716
    106  ND2       -6.1960    2.5390   16.3560 N.am  282  ASN282     -0.0877
    107  N         -5.8580    6.6430   27.7290 N.3   334  ARG334     -0.1245
    108  CA        -4.6170    6.2770   27.0520 C.3   334  ARG334      0.1563
    109  C         -4.2650    7.4040   26.1310 C.2   334  ARG334      0.2260
    110  O         -3.1100    7.6870   25.9410 O.2   334  ARG334     -0.2867
    111  CB        -4.8220    5.1080   26.1140 C.3   334  ARG334      0.0307
    112  CG        -5.8370    4.2120   26.6650 C.3   334  ARG334      0.0489
    113  CD        -6.1170    2.9360   25.9550 C.3   334  ARG334      0.2205
    114  NE        -5.2160    1.8930   26.3480 N.pl3 334  ARG334     -0.0865
    115  CZ        -5.3990    0.6400   25.9560 C.cat 334  ARG334      0.5346
    116  NH1       -6.4430    0.3350   25.1740 N.pl3 334  ARG334      0.1354
    117  NH2       -4.5460   -0.3020   26.3440 N.pl3 334  ARG334      0.1354
@<TRIPOS>BOND
     1    44    43   ar
     2     1     2    1
     3    43    45   ar
     4    43    42    1
     5    30    29    2
     6     2     5    1
     7     2     3    1
     8    37    36    2
     9    39    42    1
    10    39    38    1
    11    39    40    1
    12    36    38   am
    13    36    35    1
    14    41    40    2
    15    35    34    1
    16     5     6    1
    17    29    34   am
    18    29    28    1
    19     3    12   am
    20     3     4    2
    21    12    13    1
    22    40    46   am
    23    31    28    1
    24    31    32    1
    25    31    33    1
    26    14    13    1
    27    14    15    2
    28    28    27    1
    29    16    13    1
    30    16    17    1
    31     6     7   ar
    32     6     8   ar
    33     7     9   ar
    34    18    17    1
    35    18    19    1
    36    46    47    1
    37    49    48    2
    38    48    47    1
    39    19    20    1
    40    27    23   am
    41    24    23    2
    42     8    10   ar
    43     9    11   ar
    44    47    50    1
    45    23    22    1
    46    26    25    1
    47    10    11   ar
    48    50    51    1
    49    50    52    1
    50   105   104    2
    51    25    22    1
    52    22    21    1
    53    94    92   am
    54    81    80    2
    55    79    80    1
    56    79    78    1
    57    79    82    1
    58   104   106   am
    59   104   103    1
    60    83    82    1
    61    83    84    1
    62    86    84   am
    63   103   100    1
    64    84    85    2
    65    69    67    1
    66    92    91    1
    67    92    93    2
    68    87    88    1
    69    91    88    1
    70   100   101    1
    71   100    99    1
    72    67    68    1
    73    67    66    2
    74   102   101    2
    75    88    89    1
    76    90    89    2
    77    66    65    1
    78    62    61    2
    79    99    97   am
    80    63    60    1
    81    63    64    1
    82    60    61    1
    83    60    59    1
    84    61    70   am
    85    64    65    1
    86    73    72    2
    87    97    98    2
    88    97    96    1
    89    72    71    1
    90    70    71    1
    91    58    57    1
    92    71    74    1
    93    95    96    1
    94    77    75    1
    95    54    57    1
    96    54    53    1
    97    54    55    1
    98    74    75    1
    99    56    55    2
   100    75    76    1
   101   116   115    1
   102   110   109    2
   103   113   114    1
   104   113   112    1
   105   115   117    1
   106   115   114    2
   107   111   112    1
   108   111   108    1
   109   109   108    1
   110   108   107    1
