@<TRIPOS>MOLECULE
tmp/2c2kA00.pdb
 110 106 0 0 0
SMALL
GASTEIGER

@<TRIPOS>ATOM
      1  N         30.0330   42.0220   26.0850 N.3    33  MET33      -0.1230
      2  CA        30.5440   40.6700   26.2740 C.3    33  MET33       0.1702
      3  C         30.6560   39.9420   24.9410 C.2    33  MET33       0.2593
      4  O         29.8110   40.1030   24.0590 O.2    33  MET33      -0.2718
      5  CB        29.6460   39.8880   27.2400 C.3    33  MET33       0.0401
      6  CG        29.6670   40.4370   28.6620 C.3    33  MET33       0.0596
      7  SD        28.8200   39.3960   29.8680 S.3    33  MET33      -0.1393
      8  CE        27.1800   40.1520   29.8830 C.3    33  MET33       0.0692
      9  N         31.7110   39.1460   24.7980 N.am   34  THR34      -0.1939
     10  CA        31.9550   38.3970   23.5700 C.3    34  THR34       0.2028
     11  C         31.2050   37.0680   23.5760 C.2    34  THR34       0.2643
     12  O         30.8150   36.5710   24.6350 O.2    34  THR34      -0.2714
     13  CB        33.4600   38.1030   23.3890 C.3    34  THR34       0.1808
     14  OG1       33.9190   37.2930   24.4770 O.3    34  THR34      -0.2208
     15  CG2       34.2580   39.3960   23.3620 C.3    34  THR34       0.0379
     16  N         31.0060   36.4940   22.3930 N.am   35  SER35      -0.1935
     17  CA        30.3110   35.2200   22.2820 C.3    35  SER35       0.2055
     18  C         31.1960   34.1010   22.8260 C.2    35  SER35       0.2643
     19  O         32.4270   34.1930   22.7990 O.2    35  SER35      -0.2714
     20  CB        29.9350   34.9430   20.8230 C.3    35  SER35       0.2130
     21  OG        31.0780   34.9150   19.9900 O.3    35  SER35      -0.2179
     22  N         30.5620   33.0470   23.3270 N.am   36  ARG36      -0.1963
     23  CA        31.2840   31.9190   23.9020 C.3    36  ARG36       0.1729
     24  C         31.3210   30.7280   22.9510 C.2    36  ARG36       0.2616
     25  O         30.5700   29.7650   23.1060 O.2    36  ARG36      -0.2715
     26  CB        30.6360   31.5300   25.2410 C.3    36  ARG36       0.0348
     27  CG        30.6900   32.6550   26.2760 C.3    36  ARG36       0.0492
     28  CD        29.9800   32.3160   27.5870 C.3    36  ARG36       0.2205
     29  NE        30.5440   31.1290   28.2250 N.pl3  36  ARG36      -0.0865
     30  CZ        30.0450   29.9040   28.1010 C.cat  36  ARG36       0.5346
     31  NH1       28.9590   29.7000   27.3710 N.pl3  36  ARG36       0.1354
     32  NH2       30.6490   28.8770   28.6870 N.pl3  36  ARG36       0.1354
     33  N         32.2060   30.7990   21.9620 N.am   37  SER37      -0.1950
     34  CA        32.3330   29.7270   20.9850 C.3    37  SER37       0.1924
     35  C         32.6230   28.3880   21.6500 C.2    37  SER37       0.2314
     36  O         33.4190   28.3010   22.5900 O.2    37  SER37      -0.2863
     37  CB        33.4430   30.0500   19.9830 C.3    37  SER37       0.2116
     38  OG        34.6840   30.2050   20.6440 O.3    37  SER37      -0.2180
     39  N         28.1470   30.0470   30.9990 N.3    92  SER92      -0.1202
     40  CA        28.1690   31.4660   30.6550 C.3    92  SER92       0.2020
     41  C         29.4190   32.1610   31.1720 C.2    92  SER92       0.2619
     42  O         30.3100   31.5250   31.7380 O.2    92  SER92      -0.2717
     43  CB        26.9350   32.1470   31.2620 C.3    92  SER92       0.2103
     44  OG        26.8530   33.5120   30.8970 O.3    92  SER92      -0.2182
     45  N         29.4880   33.4710   30.9530 N.am   93  HIS93      -0.1961
     46  CA        30.5990   34.2660   31.4560 C.3    93  HIS93       0.1787
     47  C         30.2350   34.4400   32.9260 C.2    93  HIS93       0.2621
     48  O         29.0790   34.2510   33.2990 O.2    93  HIS93      -0.2715
     49  CB        30.6370   35.6540   30.8000 C.3    93  HIS93       0.0785
     50  CG        31.0480   35.6480   29.3600 C.ar   93  HIS93       0.0821
     51  ND1       32.2640   35.1580   28.9350 N.ar   93  HIS93      -0.2267
     52  CD2       30.4320   36.1330   28.2560 C.ar   93  HIS93       0.1154
     53  CE1       32.3800   35.3430   27.6320 C.ar   93  HIS93       0.1986
     54  NE2       31.2820   35.9340   27.1950 N.ar   93  HIS93      -0.2212
     55  N         31.2000   34.8050   33.7600 N.am   94  GLY94      -0.1940
     56  CA        30.8820   34.9980   35.1610 C.3    94  GLY94       0.2014
     57  C         32.0120   35.5900   35.9710 C.2    94  GLY94       0.2638
     58  O         33.1030   35.8250   35.4560 O.2    94  GLY94      -0.2714
     59  N         31.7250   35.8520   37.2410 N.am   95  GLU95      -0.1977
     60  CA        32.6990   36.3900   38.1800 C.3    95  GLU95       0.1602
     61  C         32.3820   35.6600   39.4750 C.2    95  GLU95       0.2287
     62  O         31.4230   34.8920   39.5250 O.2    95  GLU95      -0.2864
     63  CB        32.5120   37.9020   38.3570 C.3    95  GLU95       0.0415
     64  CG        32.4870   38.6780   37.0410 C.3    95  GLU95       0.1163
     65  CD        32.5130   40.1870   37.2370 C.2    95  GLU95       0.3649
     66  OE1       31.7640   40.6990   38.0980 O.co2  95  GLU95      -0.2457
     67  OE2       33.2800   40.8640   36.5190 O.co2  95  GLU95      -0.2457
     68  N         26.4250   35.4070   34.2830 N.3   100  PHE100     -0.1241
     69  CA        25.8650   36.4290   33.4140 C.3   100  PHE100      0.1605
     70  C         24.7230   36.0170   32.5090 C.2   100  PHE100      0.2264
     71  O         24.7780   34.9870   31.8360 O.2   100  PHE100     -0.2867
     72  CB        26.9690   37.0490   32.5570 C.3   100  PHE100      0.0534
     73  CG        27.8040   38.0510   33.2880 C.ar  100  PHE100     -0.0203
     74  CD1       27.3560   39.3580   33.4530 C.ar  100  PHE100     -0.0042
     75  CD2       29.0290   37.6870   33.8340 C.ar  100  PHE100     -0.0042
     76  CE1       28.1200   40.2910   34.1540 C.ar  100  PHE100     -0.0003
     77  CE2       29.7990   38.6120   34.5370 C.ar  100  PHE100     -0.0003
     78  CZ        29.3430   39.9160   34.6960 C.ar  100  PHE100     -0.0000
     79  N         29.9960   26.4030   34.7850 N.3   133  GLN133     -0.1231
     80  CA        31.1060   26.6380   33.8730 C.3   133  GLN133      0.1698
     81  C         31.1110   28.1480   33.6540 C.2   133  GLN133      0.2592
     82  O         30.3220   28.6690   32.8710 O.2   133  GLN133     -0.2718
     83  CB        30.8810   25.9070   32.5440 C.3   133  GLN133      0.0381
     84  CG        31.8490   26.3090   31.4250 C.3   133  GLN133      0.0905
     85  CD        33.3040   26.3260   31.8670 C.2   133  GLN133      0.2608
     86  OE1       33.7850   25.3890   32.5030 O.2   133  GLN133     -0.2717
     87  NE2       34.0170   27.3910   31.5140 N.am  133  GLN133     -0.0878
     88  N         31.9910   28.8390   34.3710 N.am  134  ALA134     -0.1966
     89  CA        32.1050   30.2940   34.2940 C.3   134  ALA134      0.1728
     90  C         33.3140   30.7400   35.1060 C.2   134  ALA134      0.2616
     91  O         33.7570   30.0300   36.0090 O.2   134  ALA134     -0.2715
     92  CB        30.8440   30.9430   34.8570 C.3   134  ALA134      0.0334
     93  N         33.8510   31.9130   34.7830 N.am  135  CYS135     -0.1968
     94  CA        34.9920   32.4380   35.5230 C.3   135  CYS135      0.1712
     95  C         34.5420   32.7680   36.9340 C.2   135  CYS135      0.2296
     96  O         33.3540   32.9820   37.1800 O.2   135  CYS135     -0.2864
     97  CB        35.5280   33.7200   34.8790 C.3   135  CYS135      0.0983
     98  SG        36.3850   33.4930   33.3060 S.3   135  CYS135     -0.0798
     99  N         36.7770   34.8990   38.6320 N.3   137  GLY137     -0.1225
    100  CA        37.7370   35.9610   38.8710 C.3   137  GLY137      0.1811
    101  C         38.6920   36.1060   37.6980 C.2   137  GLY137      0.2280
    102  O         38.4480   35.5600   36.6180 O.2   137  GLY137     -0.2866
    103  N         45.1630   33.6880   37.1090 N.3   140  LEU140     -0.1245
    104  CA        45.6280   32.6510   36.1910 C.3   140  LEU140      0.1561
    105  C         46.5880   31.7280   36.9330 C.2   140  LEU140      0.2260
    106  O         47.3790   32.1760   37.7610 O.2   140  LEU140     -0.2867
    107  CB        46.3320   33.2840   34.9850 C.3   140  LEU140      0.0270
    108  CG        45.4270   34.0200   33.9890 C.3   140  LEU140      0.0019
    109  CD1       46.2590   34.8560   33.0330 C.3   140  LEU140      0.0001
    110  CD2       44.5890   33.0050   33.2270 C.3   140  LEU140      0.0001
@<TRIPOS>BOND
     1    37    38    1
     2    37    34    1
     3    21    20    1
     4    20    17    1
     5    34    35    1
     6    34    33    1
     7    35    36    2
     8    33    24   am
     9    17    16    1
    10    17    18    1
    11    16    11   am
    12    19    18    2
    13    18    22   am
    14    24    25    2
    15    24    23    1
    16    22    23    1
    17    15    13    1
    18    13    10    1
    19    13    14    1
    20    10    11    1
    21    10     9    1
    22    11    12    2
    23    23    26    1
    24     4     3    2
    25     9     3   am
    26     3     2    1
    27    26    27    1
    28     1     2    1
    29     2     5    1
    30    27    28    1
    31    54    53   ar
    32    54    52   ar
    33     5     6    1
    34    31    30    1
    35    28    29    1
    36    53    51   ar
    37    30    29    2
    38    30    32    1
    39    52    50   ar
    40     6     7    1
    41    51    50   ar
    42    50    49    1
    43     7     8    1
    44    40    39    1
    45    40    41    1
    46    40    43    1
    47    49    46    1
    48    44    43    1
    49    45    41   am
    50    45    46    1
    51    41    42    2
    52    84    85    1
    53    84    83    1
    54    46    47    1
    55    87    85   am
    56    71    70    2
    57    85    86    2
    58    70    69    1
    59    83    80    1
    60    72    73    1
    61    72    69    1
    62    82    81    2
    63    47    48    2
    64    47    55   am
    65   109   108    1
    66   110   108    1
    67    73    74   ar
    68    73    75   ar
    69    98    97    1
    70    69    68    1
    71    74    76   ar
    72    81    80    1
    73    81    88   am
    74    55    56    1
    75    75    77   ar
    76    80    79    1
    77   108   107    1
    78    76    78   ar
    79    89    88    1
    80    89    92    1
    81    89    90    1
    82    77    78   ar
    83    93    90   am
    84    93    94    1
    85    97    94    1
    86   107   104    1
    87    90    91    2
    88    56    57    1
    89    58    57    2
    90    94    95    1
    91    57    59   am
    92   104   105    1
    93   104   103    1
    94    67    65   ar
    95   102   101    2
    96   105   106    2
    97    95    96    2
    98    64    65    1
    99    64    63    1
   100    65    66   ar
   101    59    60    1
   102   101   100    1
   103    60    63    1
   104    60    61    1
   105    99   100    1
   106    61    62    2
