@<TRIPOS>MOLECULE
tmp/2c2lB00.pdb
 179 171 0 0 0
SMALL
GASTEIGER

@<TRIPOS>ATOM
      1  N        -22.7410   16.9450   23.0360 N.3     8  LYS8       -0.1245
      2  CA       -21.3130   16.7560   23.0850 C.3     8  LYS8        0.1561
      3  C        -20.6510   17.8370   22.2480 C.2     8  LYS8        0.2260
      4  O        -19.5990   18.3480   22.6200 O.2     8  LYS8       -0.2867
      5  CB       -20.9260   15.3790   22.5570 C.3     8  LYS8        0.0271
      6  CG       -19.5250   14.9690   22.9470 C.3     8  LYS8        0.0035
      7  CD       -19.1840   13.5380   22.5650 C.3     8  LYS8        0.0206
      8  CE       -19.0650   13.3610   21.0650 C.3     8  LYS8        0.1093
      9  NZ       -18.5490   12.0040   20.7160 N.3     8  LYS8       -0.1314
     10  N        -17.9880   20.9570   23.2160 N.3    12  ASN12      -0.1240
     11  CA       -16.7590   21.2700   22.5110 C.3    12  ASN12       0.1653
     12  C        -16.6700   22.7900   22.3490 C.2    12  ASN12       0.2266
     13  O        -15.5900   23.3850   22.4430 O.2    12  ASN12      -0.2867
     14  CB       -16.7630   20.5920   21.1460 C.3    12  ASN12       0.1155
     15  CG       -16.6220   19.0970   21.2570 C.2    12  ASN12       0.2627
     16  OD1      -17.0540   18.4940   22.2430 O.2    12  ASN12      -0.2716
     17  ND2      -16.0220   18.4850   20.2490 N.am   12  ASN12      -0.0877
     18  N        -15.8510   24.3760   25.7690 N.3    15  PHE15      -0.1241
     19  CA       -14.5000   23.9020   26.0170 C.3    15  PHE15       0.1605
     20  C        -13.5000   24.8130   25.3130 C.2    15  PHE15       0.2264
     21  O        -13.0030   25.7750   25.9140 O.2    15  PHE15      -0.2867
     22  CB       -14.3520   22.4600   25.5080 C.3    15  PHE15       0.0534
     23  CG       -12.9350   21.9540   25.5220 C.ar   15  PHE15      -0.0203
     24  CD1      -12.2830   21.6430   24.3280 C.ar   15  PHE15      -0.0042
     25  CD2      -12.2520   21.7890   26.7230 C.ar   15  PHE15      -0.0042
     26  CE1      -10.9720   21.1950   24.3300 C.ar   15  PHE15      -0.0003
     27  CE2      -10.9430   21.3440   26.7330 C.ar   15  PHE15      -0.0003
     28  CZ       -10.3010   21.0370   25.5340 C.ar   15  PHE15      -0.0000
     29  N        -21.5880   18.9810   29.1720 N.3    27  TYR27      -0.1241
     30  CA       -21.2530   17.5710   29.0590 C.3    27  TYR27       0.1605
     31  C        -22.0450   16.8620   30.1530 C.2    27  TYR27       0.2264
     32  O        -22.6000   15.7950   29.9250 O.2    27  TYR27      -0.2867
     33  CB       -19.7650   17.3350   29.2940 C.3    27  TYR27       0.0534
     34  CG       -18.8970   17.5890   28.0970 C.ar   27  TYR27      -0.0201
     35  CD1      -19.1410   16.9510   26.9010 C.ar   27  TYR27      -0.0009
     36  CD2      -17.8120   18.4500   28.1680 C.ar   27  TYR27      -0.0009
     37  CE1      -18.3280   17.1600   25.7970 C.ar   27  TYR27       0.0417
     38  CE2      -16.9840   18.6710   27.0650 C.ar   27  TYR27       0.0417
     39  CZ       -17.2510   18.0250   25.8820 C.ar   27  TYR27       0.1957
     40  OH       -16.4800   18.2510   24.7630 O.3    27  TYR27      -0.2866
     41  N        -16.9410    8.1890   26.5360 N.3    39  VAL39      -0.1245
     42  CA       -16.3970    9.4240   26.0290 C.3    39  VAL39       0.1561
     43  C        -16.7850   10.6440   26.8140 C.2    39  VAL39       0.2260
     44  O        -15.9190   11.4460   27.1090 O.2    39  VAL39      -0.2867
     45  CB       -16.8040    9.6810   24.6080 C.3    39  VAL39       0.0252
     46  CG1      -16.1270   10.9280   24.1310 C.3    39  VAL39       0.0019
     47  CG2      -16.4500    8.4850   23.7310 C.3    39  VAL39       0.0019
     48  N        -14.7330   11.1930   30.2710 N.3    42  THR42      -0.1203
     49  CA       -13.3730   11.7150   30.1310 C.3    42  THR42       0.1994
     50  C        -13.3770   13.1870   29.7060 C.2    42  THR42       0.2617
     51  O        -12.5690   13.9660   30.1880 O.2    42  THR42      -0.2717
     52  CB       -12.5310   10.9390   29.1140 C.3    42  THR42       0.1784
     53  OG1      -13.1060   11.0920   27.8150 O.3    42  THR42      -0.2211
     54  CG2      -12.4480    9.4740   29.4860 C.3    42  THR42       0.0376
     55  N        -14.3010   13.5720   28.8330 N.am   43  ASN43      -0.1974
     56  CA       -14.3460   14.9460   28.3930 C.3    43  ASN43       0.1688
     57  C        -14.6150   15.8860   29.5130 C.2    43  ASN43       0.2292
     58  O        -13.8800   16.8470   29.7160 O.2    43  ASN43      -0.2864
     59  CB       -15.3950   15.1440   27.3320 C.3    43  ASN43       0.1181
     60  CG       -15.0570   14.4220   26.0770 C.2    43  ASN43       0.2629
     61  OD1      -13.9000   14.0410   25.8590 O.2    43  ASN43      -0.2716
     62  ND2      -16.0580   14.2320   25.2200 N.am   43  ASN43      -0.0877
     63  N        -11.6340   16.0840   31.5310 N.3    46  LEU46      -0.1231
     64  CA       -10.5650   16.8790   30.9220 C.3    46  LEU46       0.1693
     65  C        -10.7720   18.3540   31.1440 C.2    46  LEU46       0.2592
     66  O         -9.8230   19.1370   31.1420 O.2    46  LEU46      -0.2718
     67  CB       -10.4850   16.6460   29.4130 C.3    46  LEU46       0.0284
     68  CG        -9.6470   17.6680   28.6280 C.3    46  LEU46       0.0019
     69  CD1       -8.2570   17.7210   29.1890 C.3    46  LEU46       0.0001
     70  CD2       -9.6010   17.3030   27.1430 C.3    46  LEU46       0.0001
     71  N        -12.0280   18.7390   31.2970 N.am   47  CYS47      -0.1970
     72  CA       -12.3300   20.1300   31.5260 C.3    47  CYS47       0.1712
     73  C        -12.0440   20.3940   32.9850 C.2    47  CYS47       0.2296
     74  O        -11.3400   21.3360   33.3180 O.2    47  CYS47      -0.2864
     75  CB       -13.7750   20.4240   31.1220 C.3    47  CYS47       0.0983
     76  SG       -13.8540   20.6880   29.3070 S.3    47  CYS47      -0.0798
     77  N         -9.9140   19.3500   34.6930 N.3    49  LEU49      -0.1231
     78  CA        -8.4550   19.5190   34.8170 C.3    49  LEU49       0.1693
     79  C         -7.9540   20.9190   34.4820 C.2    49  LEU49       0.2591
     80  O         -6.8340   21.2810   34.8470 O.2    49  LEU49      -0.2718
     81  CB        -7.6850   18.5230   33.9400 C.3    49  LEU49       0.0284
     82  CG        -7.5460   17.0350   34.2630 C.3    49  LEU49       0.0019
     83  CD1       -6.3240   16.5330   33.4760 C.3    49  LEU49       0.0001
     84  CD2       -7.3520   16.7760   35.7500 C.3    49  LEU49       0.0001
     85  N         -8.7490   21.6870   33.7470 N.am   50  LYS50      -0.1980
     86  CA        -8.3470   23.0470   33.4560 C.3    50  LYS50       0.1596
     87  C         -8.9490   23.9180   34.5290 C.2    50  LYS50       0.2287
     88  O         -9.6520   24.8870   34.2480 O.2    50  LYS50      -0.2864
     89  CB        -8.8400   23.5290   32.1090 C.3    50  LYS50       0.0298
     90  CG        -7.8070   23.4930   31.0520 C.3    50  LYS50       0.0038
     91  CD        -7.7490   22.1230   30.4710 C.3    50  LYS50       0.0206
     92  CE        -7.1610   22.1380   29.0680 C.3    50  LYS50       0.1093
     93  NZ        -5.7780   22.6760   29.0190 N.3    50  LYS50      -0.1314
     94  N         -7.1390    4.6040   27.1290 N.3    72  VAL72      -0.1231
     95  CA        -5.8530    5.2490   27.2580 C.3    72  VAL72       0.1692
     96  C         -6.0340    6.6120   27.8790 C.2    72  VAL72       0.2591
     97  O         -5.3550    6.9530   28.8420 O.2    72  VAL72      -0.2718
     98  CB        -5.1900    5.3750   25.9160 C.3    72  VAL72       0.0266
     99  CG1       -4.0690    6.3650   25.9890 C.3    72  VAL72       0.0020
    100  CG2       -4.6980    4.0180   25.4930 C.3    72  VAL72       0.0020
    101  N         -6.9870    7.3710   27.3580 N.am   73  LYS73      -0.1980
    102  CA        -7.2350    8.7000   27.8690 C.3    73  LYS73       0.1596
    103  C         -7.7910    8.6560   29.2830 C.2    73  LYS73       0.2287
    104  O         -7.5720    9.5730   30.0680 O.2    73  LYS73      -0.2864
    105  CB        -8.1780    9.4480   26.9330 C.3    73  LYS73       0.0298
    106  CG        -7.9030   10.9340   26.8750 C.3    73  LYS73       0.0038
    107  CD        -8.8290   11.6280   25.8940 C.3    73  LYS73       0.0206
    108  CE        -8.4060   11.3870   24.4530 C.3    73  LYS73       0.1093
    109  NZ        -7.0300   11.9470   24.1950 N.3    73  LYS73      -0.1314
    110  N         -4.7510    8.1010   31.6470 N.3    76  PHE76      -0.1227
    111  CA        -4.0140    9.3480   31.6240 C.3    76  PHE76       0.1736
    112  C         -4.5580   10.3950   32.5650 C.2    76  PHE76       0.2595
    113  O         -3.8360   10.8510   33.4410 O.2    76  PHE76      -0.2718
    114  CB        -4.0130    9.9400   30.2370 C.3    76  PHE76       0.0547
    115  CG        -2.9400   10.9490   30.0250 C.ar   76  PHE76      -0.0202
    116  CD1       -1.6780   10.5450   29.6090 C.ar   76  PHE76      -0.0042
    117  CD2       -3.1910   12.3040   30.1940 C.ar   76  PHE76      -0.0042
    118  CE1       -0.6740   11.4790   29.3490 C.ar   76  PHE76      -0.0003
    119  CE2       -2.1950   13.2540   29.9380 C.ar   76  PHE76      -0.0003
    120  CZ        -0.9350   12.8370   29.5130 C.ar   76  PHE76      -0.0000
    121  N         -5.8140   10.8040   32.3790 N.am   77  PHE77      -0.1976
    122  CA        -6.3890   11.8300   33.2600 C.3    77  PHE77       0.1639
    123  C         -6.5240   11.3470   34.6850 C.2    77  PHE77       0.2290
    124  O         -6.4720   12.1480   35.6030 O.2    77  PHE77      -0.2864
    125  CB        -7.7560   12.3190   32.7690 C.3    77  PHE77       0.0560
    126  CG        -7.7110   12.9250   31.4080 C.ar   77  PHE77      -0.0200
    127  CD1       -6.5570   13.5520   30.9540 C.ar   77  PHE77      -0.0042
    128  CD2       -8.7930   12.8190   30.5520 C.ar   77  PHE77      -0.0042
    129  CE1       -6.4770   14.0470   29.6570 C.ar   77  PHE77      -0.0003
    130  CE2       -8.7260   13.3140   29.2480 C.ar   77  PHE77      -0.0003
    131  CZ        -7.5600   13.9300   28.8020 C.ar   77  PHE77      -0.0000
    132  N         -3.3620   11.8560   35.9860 N.3    80  GLN80      -0.1245
    133  CA        -2.9500   13.2180   35.8270 C.3    80  GLN80       0.1566
    134  C         -3.5280   14.0060   36.9680 C.2    80  GLN80       0.2260
    135  O         -2.9820   15.0270   37.4100 O.2    80  GLN80      -0.2867
    136  CB        -3.4860   13.7890   34.5360 C.3    80  GLN80       0.0367
    137  CG        -2.7060   14.9770   34.1210 C.3    80  GLN80       0.0905
    138  CD        -1.2560   14.6020   33.9320 C.2    80  GLN80       0.2608
    139  OE1       -0.5680   14.1920   34.8770 O.2    80  GLN80      -0.2717
    140  NE2       -0.7870   14.7050   32.6980 N.am   80  GLN80      -0.0878
    141  N         -0.8520    7.2470   18.5960 N.3   108  ASN108     -0.1225
    142  CA         0.2430    8.2160   18.4690 C.3   108  ASN108      0.1785
    143  C          0.1780    9.3590   19.4850 C.2   108  ASN108      0.2597
    144  O         -0.7750   10.1410   19.5120 O.2   108  ASN108     -0.2718
    145  CB         0.2620    8.8150   17.0600 C.3   108  ASN108      0.1169
    146  CG        -1.0430    9.5350   16.7050 C.2   108  ASN108      0.2627
    147  OD1       -1.1070   10.2970   15.7240 O.2   108  ASN108     -0.2716
    148  ND2       -2.0900    9.2950   17.4990 N.am  108  ASN108     -0.0877
    149  N          1.2120    9.4630   20.3100 N.am  109  PHE109     -0.1962
    150  CA         1.2880   10.5070   21.3310 C.3   109  PHE109      0.1771
    151  C          2.7400   10.7690   21.6870 C.2   109  PHE109      0.2620
    152  O          3.0960   10.8020   22.8700 O.2   109  PHE109     -0.2715
    153  CB         0.5670   10.0770   22.6040 C.3   109  PHE109      0.0574
    154  CG        -0.9120   10.1930   22.5300 C.ar  109  PHE109     -0.0200
    155  CD1       -1.5020   11.4160   22.2510 C.ar  109  PHE109     -0.0042
    156  CD2       -1.7230    9.0840   22.7670 C.ar  109  PHE109     -0.0042
    157  CE1       -2.8800   11.5410   22.2060 C.ar  109  PHE109     -0.0003
    158  CE2       -3.1030    9.1900   22.7270 C.ar  109  PHE109     -0.0003
    159  CZ        -3.6890   10.4250   22.4460 C.ar  109  PHE109     -0.0000
    160  N          3.5830   10.9370   20.6750 N.am  110  GLY110     -0.1954
    161  CA         4.9840   11.1800   20.9430 C.3   110  GLY110      0.1869
    162  C          5.1330   12.2310   22.0180 C.2   110  GLY110      0.2309
    163  O          4.3350   13.1620   22.0940 O.2   110  GLY110     -0.2863
    164  N          4.0660   12.8570   24.5510 N.3   112  ASP112     -0.1225
    165  CA         2.8850   13.2310   25.3130 C.3   112  ASP112      0.1805
    166  C          2.8730   12.4720   26.6200 C.2   112  ASP112      0.2597
    167  O          2.8980   13.0530   27.6960 O.2   112  ASP112     -0.2718
    168  CB         1.6100   12.9030   24.5280 C.3   112  ASP112      0.1424
    169  CG         1.1400   14.0560   23.6640 C.2   112  ASP112      0.3668
    170  OD1        1.7550   14.2980   22.6020 O.co2 112  ASP112     -0.2456
    171  OD2        0.1600   14.7310   24.0650 O.co2 112  ASP112     -0.2456
    172  N          2.8390   11.1560   26.5050 N.am  113  ILE113     -0.1980
    173  CA         2.8130   10.3040   27.6680 C.3   113  ILE113      0.1595
    174  C          4.1860   10.2650   28.3140 C.2   113  ILE113      0.2287
    175  O          4.3230   10.5520   29.5010 O.2   113  ILE113     -0.2864
    176  CB         2.3970    8.8640   27.2930 C.3   113  ILE113      0.0276
    177  CG1        1.0960    8.8900   26.5030 C.3   113  ILE113      0.0022
    178  CG2        2.1960    8.0250   28.5400 C.3   113  ILE113      0.0022
    179  CD1        0.6390    7.5290   26.0970 C.3   113  ILE113      0.0001
@<TRIPOS>BOND
     1   147   146    2
     2   146   145    1
     3   146   148   am
     4   145   142    1
     5   142   141    1
     6   142   143    1
     7   143   144    2
     8   143   149   am
     9    17    15   am
    10   149   150    1
    11   160   161    1
    12   160   151   am
    13     9     8    1
    14   161   162    1
    15     8     7    1
    16    14    15    1
    17    14    11    1
    18    15    16    2
    19   150   151    1
    20   150   153    1
    21   151   152    2
    22   162   163    2
    23   157   155   ar
    24   157   159   ar
    25     3     4    2
    26     3     2    1
    27   155   154   ar
    28    12    13    2
    29    12    11    1
    30   159   158   ar
    31    11    10    1
    32   154   153    1
    33   154   156   ar
    34     5     6    1
    35     5     2    1
    36     7     6    1
    37   170   169   ar
    38   158   156   ar
    39     1     2    1
    40   169   171   ar
    41   169   168    1
    42    47    45    1
    43    46    45    1
    44   109   108    1
    45    24    26   ar
    46    24    23   ar
    47    26    28   ar
    48   108   107    1
    49   168   165    1
    50   164   165    1
    51    45    42    1
    52    40    39    1
    53    62    60   am
    54   165   166    1
    55    20    21    2
    56    20    19    1
    57   100    98    1
    58    22    23    1
    59    22    19    1
    60    23    25   ar
    61    28    27   ar
    62    18    19    1
    63    37    39   ar
    64    37    35   ar
    65    61    60    2
    66    39    38   ar
    67   107   106    1
    68    98    99    1
    69    98    95    1
    70    42    41    1
    71    42    43    1
    72    60    59    1
    73   179   177    1
    74   177   176    1
    75   172   166   am
    76   172   173    1
    77   166   167    2
    78    25    27   ar
    79    43    44    2
    80   106   105    1
    81    35    34   ar
    82   105   102    1
    83    38    36   ar
    84    94    95    1
    85    70    68    1
    86    95    96    1
    87   176   173    1
    88   176   178    1
    89    59    56    1
    90   101   102    1
    91   101    96   am
    92   173   174    1
    93    53    52    1
    94   102   103    1
    95    96    97    2
    96    34    36   ar
    97    34    33    1
    98   174   175    2
    99    56    55    1
   100    56    57    1
   101    68    69    1
   102    68    67    1
   103   131   130   ar
   104   131   129   ar
   105    55    50   am
   106    93    92    1
   107    30    29    1
   108    30    33    1
   109    30    31    1
   110    92    91    1
   111    52    54    1
   112    52    49    1
   113   130   128   ar
   114   103   104    2
   115    76    75    1
   116   118   120   ar
   117   118   116   ar
   118    67    64    1
   119    57    58    2
   120   120   119   ar
   121   116   115   ar
   122   129   127   ar
   123    50    49    1
   124    50    51    2
   125    32    31    2
   126   119   117   ar
   127   115   117   ar
   128   115   114    1
   129    49    48    1
   130   114   111    1
   131    91    90    1
   132   128   126   ar
   133    64    65    1
   134    64    63    1
   135   127   126   ar
   136    90    89    1
   137    75    72    1
   138    66    65    2
   139    65    71   am
   140    71    72    1
   141   126   125    1
   142    72    73    1
   143   111   110    1
   144   111   112    1
   145    89    86    1
   146   121   112   am
   147   121   122    1
   148   112   113    2
   149   140   138   am
   150   125   122    1
   151    73    74    2
   152   122   123    1
   153    86    85    1
   154    86    87    1
   155    83    82    1
   156    85    79   am
   157   138   137    1
   158   138   139    2
   159    81    82    1
   160    81    78    1
   161   137   136    1
   162    88    87    2
   163    82    84    1
   164    79    78    1
   165    79    80    2
   166   136   133    1
   167   123   124    2
   168    77    78    1
   169   133   132    1
   170   133   134    1
   171   134   135    2
