@<TRIPOS>MOLECULE
tmp/2c2mB00.pdb
 131 135 0 0 0
SMALL
GASTEIGER

@<TRIPOS>ATOM
      1  N         39.9400   32.4600   36.4650 N.3    30  TYR30      -0.1227
      2  CA        39.2600   32.4020   35.1770 C.3    30  TYR30       0.1736
      3  C         38.9250   30.9310   34.9540 C.2    30  TYR30       0.2596
      4  O         39.4910   30.0530   35.6010 O.2    30  TYR30      -0.2718
      5  CB        40.1840   32.8230   34.0270 C.3    30  TYR30       0.0548
      6  CG        40.4540   34.3020   33.8590 C.ar   30  TYR30      -0.0200
      7  CD1       41.7040   34.8370   34.1650 C.ar   30  TYR30      -0.0009
      8  CD2       39.4950   35.1500   33.3060 C.ar   30  TYR30      -0.0009
      9  CE1       41.9980   36.1760   33.9130 C.ar   30  TYR30       0.0417
     10  CE2       39.7790   36.4940   33.0530 C.ar   30  TYR30       0.0417
     11  CZ        41.0340   36.9960   33.3570 C.ar   30  TYR30       0.1957
     12  OH        41.3340   38.3150   33.0930 O.3    30  TYR30      -0.2866
     13  N         38.0110   30.6700   34.0300 N.am   31  SER31      -0.1938
     14  CA        37.6290   29.3090   33.6810 C.3    31  SER31       0.2055
     15  C         37.8920   29.2330   32.1820 C.2    31  SER31       0.2643
     16  O         37.5460   30.1650   31.4500 O.2    31  SER31      -0.2714
     17  CB        36.1490   29.0650   33.9790 C.3    31  SER31       0.2130
     18  OG        35.7910   27.7290   33.6690 O.3    31  SER31      -0.2179
     19  N         38.5060   28.1400   31.7310 N.am   32  TRP32      -0.1959
     20  CA        38.8500   27.9800   30.3190 C.3    32  TRP32       0.1771
     21  C         37.8810   27.1850   29.4510 C.2    32  TRP32       0.2620
     22  O         37.2910   26.1940   29.8820 O.2    32  TRP32      -0.2715
     23  CB        40.2480   27.3660   30.1840 C.3    32  TRP32       0.0590
     24  CG        41.3420   28.2620   30.6740 C.ar   32  TRP32       0.0006
     25  CD1       41.8840   28.2890   31.9230 C.ar   32  TRP32       0.0946
     26  CD2       41.9980   29.2920   29.9270 C.ar   32  TRP32       0.0152
     27  NE1       42.8420   29.2750   32.0030 N.ar   32  TRP32      -0.2442
     28  CE2       42.9300   29.9050   30.7910 C.ar   32  TRP32       0.0810
     29  CE3       41.8870   29.7580   28.6100 C.ar   32  TRP32       0.0012
     30  CZ2       43.7480   30.9640   30.3810 C.ar   32  TRP32       0.0191
     31  CZ3       42.7010   30.8110   28.2030 C.ar   32  TRP32       0.0001
     32  CH2       43.6190   31.4000   29.0870 C.ar   32  TRP32       0.0015
     33  N         37.7610   27.6270   28.2050 N.am   33  ARG33      -0.1963
     34  CA        36.8780   27.0150   27.2270 C.3    33  ARG33       0.1729
     35  C         37.5600   26.9370   25.8630 C.2    33  ARG33       0.2616
     36  O         38.1250   27.9260   25.3870 O.2    33  ARG33      -0.2715
     37  CB        35.5940   27.8490   27.1280 C.3    33  ARG33       0.0348
     38  CG        34.6830   27.5310   25.9550 C.3    33  ARG33       0.0492
     39  CD        33.3370   28.2360   26.1310 C.3    33  ARG33       0.2205
     40  NE        33.5120   29.6440   26.4790 N.pl3  33  ARG33      -0.0865
     41  CZ        33.9450   30.5780   25.6380 C.cat  33  ARG33       0.5346
     42  NH1       34.2430   30.2650   24.3850 N.pl3  33  ARG33       0.1354
     43  NH2       34.1080   31.8250   26.0630 N.pl3  33  ARG33       0.1354
     44  N         37.5270   25.7610   25.2420 N.am   34  ASN34      -0.1958
     45  CA        38.1150   25.6010   23.9150 C.3    34  ASN34       0.1819
     46  C         37.0280   25.9910   22.9150 C.2    34  ASN34       0.2622
     47  O         35.9500   25.3930   22.8900 O.2    34  ASN34      -0.2715
     48  CB        38.5600   24.1550   23.6880 C.3    34  ASN34       0.1195
     49  CG        39.2170   23.9550   22.3390 C.2    34  ASN34       0.2630
     50  OD1       38.5500   23.9490   21.3010 O.2    34  ASN34      -0.2716
     51  ND2       40.5380   23.8010   22.3430 N.am   34  ASN34      -0.0877
     52  N         37.3130   27.0010   22.1000 N.am   35  SER35      -0.1950
     53  CA        36.3430   27.5020   21.1330 C.3    35  SER35       0.1924
     54  C         35.7360   26.4420   20.2210 C.2    35  SER35       0.2314
     55  O         34.7030   26.6810   19.5950 O.2    35  SER35      -0.2863
     56  CB        36.9740   28.6100   20.2860 C.3    35  SER35       0.2116
     57  OG        38.0970   28.1280   19.5710 O.3    35  SER35      -0.2180
     58  N         34.1440   23.6890   26.9590 N.3    39  SER39      -0.1202
     59  CA        34.9240   23.9740   28.1620 C.3    39  SER39       0.2020
     60  C         35.6300   22.7320   28.6910 C.2    39  SER39       0.2618
     61  O         35.1300   21.6110   28.5650 O.2    39  SER39      -0.2717
     62  CB        34.0230   24.5610   29.2570 C.3    39  SER39       0.2103
     63  OG        33.0830   23.6060   29.7180 O.3    39  SER39      -0.2182
     64  N         36.8010   22.9360   29.2830 N.am   40  TRP40      -0.1975
     65  CA        37.5690   21.8290   29.8390 C.3    40  TRP40       0.1640
     66  C         36.7430   21.0880   30.8800 C.2    40  TRP40       0.2290
     67  O         36.6930   19.8590   30.8980 O.2    40  TRP40      -0.2864
     68  CB        38.8500   22.3430   30.5050 C.3    40  TRP40       0.0576
     69  CG        39.7710   23.1020   29.5940 C.ar   40  TRP40       0.0006
     70  CD1       39.6740   23.2270   28.2350 C.ar   40  TRP40       0.0946
     71  CD2       40.9580   23.8070   29.9780 C.ar   40  TRP40       0.0152
     72  NE1       40.7300   23.9670   27.7520 N.ar   40  TRP40      -0.2442
     73  CE2       41.5310   24.3360   28.8000 C.ar   40  TRP40       0.0810
     74  CE3       41.5920   24.0450   31.2060 C.ar   40  TRP40       0.0012
     75  CZ2       42.7120   25.0870   28.8110 C.ar   40  TRP40       0.0191
     76  CZ3       42.7690   24.7930   31.2190 C.ar   40  TRP40       0.0001
     77  CH2       43.3140   25.3060   30.0260 C.ar   40  TRP40       0.0015
     78  N         45.9210   22.5940   29.4000 N.3    74  GLU74      -0.1231
     79  CA        46.7950   23.7510   29.5580 C.3    74  GLU74       0.1699
     80  C         46.4190   24.7100   28.4330 C.2    74  GLU74       0.2593
     81  O         46.2950   24.3010   27.2810 O.2    74  GLU74      -0.2718
     82  CB        48.2710   23.3540   29.4530 C.3    74  GLU74       0.0402
     83  CG        49.2090   24.5410   29.5900 C.3    74  GLU74       0.1161
     84  CD        50.6710   24.1530   29.6820 C.2    74  GLU74       0.3649
     85  OE1       51.5020   24.8900   29.1160 O.co2  74  GLU74      -0.2457
     86  OE2       50.9910   23.1300   30.3280 O.co2  74  GLU74      -0.2457
     87  N         46.2320   25.9820   28.7600 N.am   75  SER75      -0.1938
     88  CA        45.8220   26.9450   27.7450 C.3    75  SER75       0.2055
     89  C         46.8670   27.2520   26.6870 C.2    75  SER75       0.2643
     90  O         48.0710   27.0900   26.8980 O.2    75  SER75      -0.2714
     91  CB        45.3970   28.2610   28.3940 C.3    75  SER75       0.2130
     92  OG        46.5300   28.9730   28.8570 O.3    75  SER75      -0.2179
     93  N         46.3720   27.6920   25.5370 N.am   76  PHE76      -0.1959
     94  CA        47.2140   28.0980   24.4260 C.3    76  PHE76       0.1771
     95  C         46.6830   29.4590   23.9990 C.2    76  PHE76       0.2620
     96  O         45.4910   29.6090   23.7210 O.2    76  PHE76      -0.2715
     97  CB        47.0980   27.1330   23.2470 C.3    76  PHE76       0.0574
     98  CG        47.8860   27.5660   22.0440 C.ar   76  PHE76      -0.0200
     99  CD1       49.2350   27.2500   21.9280 C.ar   76  PHE76      -0.0042
    100  CD2       47.2880   28.3310   21.0460 C.ar   76  PHE76      -0.0042
    101  CE1       49.9820   27.6900   20.8300 C.ar   76  PHE76      -0.0003
    102  CE2       48.0260   28.7780   19.9450 C.ar   76  PHE76      -0.0003
    103  CZ        49.3750   28.4560   19.8390 C.ar   76  PHE76      -0.0000
    104  N         47.5590   30.4530   23.9500 N.am   77  SER77      -0.1936
    105  CA        47.1370   31.7830   23.5500 C.3    77  SER77       0.2055
    106  C         48.2610   32.5580   22.8980 C.2    77  SER77       0.2643
    107  O         49.4220   32.4440   23.2930 O.2    77  SER77      -0.2714
    108  CB        46.6270   32.5660   24.7610 C.3    77  SER77       0.2130
    109  OG        46.2360   33.8710   24.3820 O.3    77  SER77      -0.2179
    110  N         47.9120   33.3410   21.8870 N.am   78  PHE78      -0.1973
    111  CA        48.8980   34.1590   21.2040 C.3    78  PHE78       0.1639
    112  C         49.3190   35.2770   22.1580 C.2    78  PHE78       0.2290
    113  O         50.3750   35.8890   21.9910 O.2    78  PHE78      -0.2864
    114  CB        48.2940   34.7160   19.9140 C.3    78  PHE78       0.0560
    115  CG        48.0810   33.6710   18.8490 C.ar   78  PHE78      -0.0200
    116  CD1       47.0440   33.7950   17.9300 C.ar   78  PHE78      -0.0042
    117  CD2       48.9280   32.5720   18.7560 C.ar   78  PHE78      -0.0042
    118  CE1       46.8540   32.8380   16.9330 C.ar   78  PHE78      -0.0003
    119  CE2       48.7500   31.6090   17.7660 C.ar   78  PHE78      -0.0003
    120  CZ        47.7110   31.7420   16.8520 C.ar   78  PHE78      -0.0000
    121  N         47.8380   35.0980   28.7390 N.3    82  PHE82      -0.1241
    122  CA        46.8970   33.9970   28.8950 C.3    82  PHE82       0.1605
    123  C         47.3940   32.6400   28.4010 C.2    82  PHE82       0.2264
    124  O         46.6210   31.6830   28.3340 O.2    82  PHE82      -0.2867
    125  CB        45.5810   34.3330   28.1800 C.3    82  PHE82       0.0534
    126  CG        44.8170   35.4630   28.8120 C.ar   82  PHE82      -0.0203
    127  CD1       45.1980   36.7850   28.6050 C.ar   82  PHE82      -0.0042
    128  CD2       43.7280   35.2030   29.6360 C.ar   82  PHE82      -0.0042
    129  CE1       44.5030   37.8340   29.2130 C.ar   82  PHE82      -0.0003
    130  CE2       43.0290   36.2420   30.2480 C.ar   82  PHE82      -0.0003
    131  CZ        43.4170   37.5570   30.0360 C.ar   82  PHE82      -0.0000
@<TRIPOS>BOND
     1   120   118   ar
     2   120   119   ar
     3   118   116   ar
     4   119   117   ar
     5   116   115   ar
     6   117   115   ar
     7   115   114    1
     8    57    56    1
     9    55    54    2
    10   103   102   ar
    11   103   101   ar
    12   114   111    1
    13   102   100   ar
    14    54    53    1
    15    56    53    1
    16   101    99   ar
    17   100    98   ar
    18    53    52    1
    19   111   110    1
    20   111   112    1
    21    50    49    2
    22   110   106   am
    23    99    98   ar
    24   113   112    2
    25    98    97    1
    26    52    46   am
    27    49    51   am
    28    49    48    1
    29    47    46    2
    30   106   107    2
    31   106   105    1
    32    46    45    1
    33    97    94    1
    34   105   104    1
    35   105   108    1
    36    48    45    1
    37    96    95    2
    38    45    44    1
    39   104    95   am
    40    95    94    1
    41   109   108    1
    42    42    41    1
    43    94    93    1
    44    44    35   am
    45    36    35    2
    46    93    89   am
    47    41    43    1
    48    41    40    2
    49    35    34    1
    50    38    39    1
    51    38    37    1
    52    39    40    1
    53    89    90    2
    54    89    88    1
    55    58    59    1
    56    37    34    1
    57    34    33    1
    58    81    80    2
    59    88    91    1
    60    88    87    1
    61    72    70   ar
    62    72    73   ar
    63    59    60    1
    64    59    62    1
    65   125   126    1
    66   125   122    1
    67    31    29   ar
    68    31    32   ar
    69    33    21   am
    70    70    69   ar
    71   124   123    2
    72    91    92    1
    73   123   122    1
    74    80    87   am
    75    80    79    1
    76    61    60    2
    77   127   126   ar
    78   127   129   ar
    79    29    26   ar
    80    60    64   am
    81   121   122    1
    82    73    75   ar
    83    73    71   ar
    84    75    77   ar
    85   126   128   ar
    86    32    30   ar
    87    85    84   ar
    88   129   131   ar
    89    62    63    1
    90    64    65    1
    91    78    79    1
    92    21    22    2
    93    21    20    1
    94    82    79    1
    95    82    83    1
    96    83    84    1
    97    69    71   ar
    98    69    68    1
    99   128   130   ar
   100    84    86   ar
   101    65    68    1
   102    65    66    1
   103    26    24   ar
   104    26    28   ar
   105    71    74   ar
   106    77    76   ar
   107   131   130   ar
   108    23    20    1
   109    23    24    1
   110    20    19    1
   111    30    28   ar
   112    24    25   ar
   113    28    27   ar
   114    66    67    2
   115    74    76   ar
   116    16    15    2
   117    19    15   am
   118    25    27   ar
   119    15    14    1
   120    10     8   ar
   121    10    11   ar
   122    12    11    1
   123     8     6   ar
   124    11     9   ar
   125    18    17    1
   126    14    17    1
   127    14    13    1
   128     6     5    1
   129     6     7   ar
   130     9     7   ar
   131     5     2    1
   132    13     3   am
   133     3     2    1
   134     3     4    2
   135     2     1    1
