@<TRIPOS>MOLECULE
tmp/2c2nA00.pdb
 164 156 0 0 0
SMALL
GASTEIGER

@<TRIPOS>ATOM
      1  N         49.6440   12.8840   45.8170 N.3    10  PRO10      -0.2102
      2  CA        48.7110   12.4090   44.7730 C.3    10  PRO10       0.1504
      3  C         47.6760   13.4230   44.3150 C.2    10  PRO10       0.2576
      4  O         47.4510   14.4800   44.9150 O.2    10  PRO10      -0.2718
      5  CB        47.9440   11.2330   45.4450 C.3    10  PRO10       0.0282
      6  CG        48.6100   10.9810   46.7920 C.3    10  PRO10       0.0208
      7  CD        49.4310   12.2160   47.1370 C.3    10  PRO10       0.0893
      8  N         47.0400   13.0360   43.2200 N.am   11  GLY11      -0.1943
      9  CA        46.0310   13.8410   42.5920 C.3    11  GLY11       0.2014
     10  C         44.7370   13.0580   42.3970 C.2    11  GLY11       0.2639
     11  O         44.5870   11.8800   42.8050 O.2    11  GLY11      -0.2714
     12  N         43.7990   13.7520   41.7390 N.am   12  GLN12      -0.1963
     13  CA        42.4670   13.2110   41.4430 C.3    12  GLN12       0.1733
     14  C         42.6280   11.8590   40.7910 C.2    12  GLN12       0.2617
     15  O         43.4490   11.7450   39.8500 O.2    12  GLN12      -0.2715
     16  CB        41.7450   14.1550   40.4820 C.3    12  GLN12       0.0408
     17  CG        40.3870   13.5590   40.1040 C.3    12  GLN12       0.0908
     18  CD        39.4100   14.5920   39.5920 C.2    12  GLN12       0.2608
     19  OE1       39.6910   15.8010   39.5870 O.2    12  GLN12      -0.2717
     20  NE2       38.2420   14.0990   39.1290 N.am   12  GLN12      -0.0878
     21  N         41.8850   10.8520   41.2630 N.am   13  GLY13      -0.1940
     22  CA        42.1110    9.4810   40.8920 C.3    13  GLY13       0.2014
     23  C         42.5060    8.6160   42.0680 C.2    13  GLY13       0.2639
     24  O         42.1780    7.4000   42.1670 O.2    13  GLY13      -0.2714
     25  N         43.2470    9.2340   42.9870 N.am   14  SER14      -0.1949
     26  CA        43.7490    8.5070   44.1710 C.3    14  SER14       0.1924
     27  C         42.7760    8.4490   45.3390 C.2    14  SER14       0.2314
     28  O         43.0270    7.7140   46.2900 O.2    14  SER14      -0.2863
     29  CB        45.0900    9.1200   44.6130 C.3    14  SER14       0.2116
     30  OG        46.1050    8.7880   43.6630 O.3    14  SER14      -0.2180
     31  N         50.9260   15.7630   41.9420 N.3    94  PHE94      -0.1241
     32  CA        50.2940   15.4940   40.6540 C.3    94  PHE94       0.1605
     33  C         49.0100   16.2810   40.5570 C.2    94  PHE94       0.2264
     34  O         48.0420   15.9990   41.2520 O.2    94  PHE94      -0.2867
     35  CB        49.9890   14.0050   40.5640 C.3    94  PHE94       0.0534
     36  CG        49.6750   13.5600   39.1700 C.ar   94  PHE94      -0.0203
     37  CD1       50.6470   12.9020   38.4330 C.ar   94  PHE94      -0.0042
     38  CD2       48.3940   13.7880   38.5890 C.ar   94  PHE94      -0.0042
     39  CE1       50.4240   12.4940   37.0860 C.ar   94  PHE94      -0.0003
     40  CE2       48.1290   13.3740   37.2450 C.ar   94  PHE94      -0.0003
     41  CZ        49.1540   12.7120   36.5090 C.ar   94  PHE94      -0.0000
     42  N         43.5760    7.2410   29.1710 N.3   137  SER137     -0.1202
     43  CA        44.9400    6.8230   29.4380 C.3   137  SER137      0.2020
     44  C         45.4030    5.8890   28.3260 C.2   137  SER137      0.2619
     45  O         44.6640    4.9480   27.9780 O.2   137  SER137     -0.2717
     46  CB        44.9580    6.1330   30.8060 C.3   137  SER137      0.2103
     47  OG        46.2790    6.1440   31.3110 O.3   137  SER137     -0.2182
     48  N         46.5840    6.1560   27.7600 N.am  138  VAL138     -0.1965
     49  CA        47.1380    5.4380   26.5900 C.3   138  VAL138      0.1727
     50  C         48.5320    4.8890   26.8840 C.2   138  VAL138      0.2616
     51  O         49.4640    5.6280   27.2390 O.2   138  VAL138     -0.2715
     52  CB        47.2150    6.3440   25.3250 C.3   138  VAL138      0.0290
     53  CG1       47.8590    5.5680   24.1340 C.3   138  VAL138      0.0023
     54  CG2       45.8320    6.8530   24.9380 C.3   138  VAL138      0.0023
     55  N         48.6710    3.5840   26.7150 N.am  139  LEU139     -0.1977
     56  CA        50.0050    2.9940   26.6840 C.3   139  LEU139      0.1596
     57  C         50.4930    2.8090   25.2500 C.2   139  LEU139      0.2287
     58  O         49.8970    2.0670   24.4620 O.2   139  LEU139     -0.2864
     59  CB        50.0260    1.6840   27.4680 C.3   139  LEU139      0.0297
     60  CG        51.3880    0.9970   27.5970 C.3   139  LEU139      0.0022
     61  CD1       52.4300    1.7990   28.4260 C.3   139  LEU139      0.0001
     62  CD2       51.2050   -0.4100   28.1520 C.3   139  LEU139      0.0001
     63  N         48.6230   14.4800   30.1680 N.3   171  ASN171     -0.1240
     64  CA        49.5250   14.0140   31.2470 C.3   171  ASN171      0.1653
     65  C         50.5930   13.1690   30.6060 C.2   171  ASN171      0.2266
     66  O         50.3080   12.2340   29.8180 O.2   171  ASN171     -0.2867
     67  CB        48.8010   13.3130   32.3790 C.3   171  ASN171      0.1155
     68  CG        47.4470   13.9450   32.7550 C.2   171  ASN171      0.2627
     69  OD1       46.5090   14.0020   31.9490 O.2   171  ASN171     -0.2716
     70  ND2       47.3080   14.3210   34.0110 N.am  171  ASN171     -0.0877
     71  N         52.9430   10.3940   31.7790 N.3   173  LEU173     -0.1231
     72  CA        53.0460    9.5940   33.0350 C.3   173  LEU173      0.1693
     73  C         54.3850    8.9220   33.2170 C.2   173  LEU173      0.2592
     74  O         55.0300    9.0580   34.2520 O.2   173  LEU173     -0.2718
     75  CB        51.9470    8.5160   33.0820 C.3   173  LEU173      0.0284
     76  CG        50.5120    9.1080   32.9900 C.3   173  LEU173      0.0019
     77  CD1       49.5480    7.9040   33.1250 C.3   173  LEU173      0.0001
     78  CD2       50.2860   10.1950   34.1060 C.3   173  LEU173      0.0001
     79  N         54.7750    8.1620   32.1980 N.am  174  PHE174     -0.1976
     80  CA        55.9920    7.3710   32.2070 C.3   174  PHE174      0.1639
     81  C         56.3450    7.0360   30.7760 C.2   174  PHE174      0.2290
     82  O         55.5530    7.3610   29.8830 O.2   174  PHE174     -0.2864
     83  CB        55.9200    6.1500   33.1710 C.3   174  PHE174      0.0560
     84  CG        54.8640    5.1240   32.8380 C.ar  174  PHE174     -0.0200
     85  CD1       53.6140    5.1840   33.4760 C.ar  174  PHE174     -0.0042
     86  CD2       55.1100    4.1010   31.9240 C.ar  174  PHE174     -0.0042
     87  CE1       52.6340    4.2140   33.2040 C.ar  174  PHE174     -0.0003
     88  CE2       54.1360    3.1320   31.6690 C.ar  174  PHE174     -0.0003
     89  CZ        52.9140    3.1910   32.2900 C.ar  174  PHE174     -0.0000
     90  N         53.8390    6.3600   27.8700 N.3   177  CYS177     -0.1235
     91  CA        52.5070    6.3050   28.4600 C.3   177  CYS177      0.1677
     92  C         51.9820    7.7210   28.7550 C.2   177  CYS177      0.2270
     93  O         52.5760    8.4490   29.5360 O.2   177  CYS177     -0.2867
     94  CB        52.4960    5.5170   29.7530 C.3   177  CYS177      0.0956
     95  SG        50.8300    5.3740   30.4580 S.3   177  CYS177     -0.0801
     96  N         48.2830   10.4050   29.0640 N.3   179  VAL179     -0.1245
     97  CA        46.8210   10.5780   29.0220 C.3   179  VAL179      0.1561
     98  C         46.5240   11.5900   27.9320 C.2   179  VAL179      0.2260
     99  O         47.2260   12.6040   27.7960 O.2   179  VAL179     -0.2867
    100  CB        46.2920   11.0540   30.3900 C.3   179  VAL179      0.0252
    101  CG1       44.7700   11.2270   30.4310 C.3   179  VAL179      0.0019
    102  CG2       46.6890   10.0460   31.4710 C.3   179  VAL179      0.0019
    103  N         47.6620   -0.0030   24.2950 N.3   201  ARG201     -0.1231
    104  CA        46.4700   -0.1830   25.1550 C.3   201  ARG201      0.1694
    105  C         45.8780    1.1600   25.6110 C.2   201  ARG201      0.2593
    106  O         46.6260    2.0630   25.8850 O.2   201  ARG201     -0.2718
    107  CB        46.8730   -0.9560   26.3900 C.3   201  ARG201      0.0321
    108  CG        45.8040   -0.9810   27.4730 C.3   201  ARG201      0.0489
    109  CD        46.3930   -1.2810   28.8220 C.3   201  ARG201      0.2205
    110  NE        45.3130   -1.3210   29.7960 N.pl3 201  ARG201     -0.0865
    111  CZ        44.9810   -0.4120   30.6970 C.cat 201  ARG201      0.5346
    112  NH1       45.6130    0.7450   30.8770 N.pl3 201  ARG201      0.1354
    113  NH2       43.9380   -0.6910   31.5150 N.pl3 201  ARG201      0.1354
    114  N         44.5530    1.2640   25.7270 N.am  202  THR202     -0.1939
    115  CA        43.8980    2.5230   26.1360 C.3   202  THR202      0.2028
    116  C         42.8520    2.2040   27.1980 C.2   202  THR202      0.2642
    117  O         42.3040    1.0720   27.1980 O.2   202  THR202     -0.2714
    118  CB        43.2290    3.2600   24.9480 C.3   202  THR202      0.1808
    119  OG1       42.0540    2.5610   24.5270 O.3   202  THR202     -0.2208
    120  CG2       44.1800    3.4490   23.7720 C.3   202  THR202      0.0379
    121  N         42.6120    3.1520   28.1020 N.am  203  ARG203     -0.1977
    122  CA        41.5650    3.1160   29.1280 C.3   203  ARG203      0.1597
    123  C         40.9480    4.4950   29.4450 C.2   203  ARG203      0.2287
    124  O         41.6630    5.4320   29.8330 O.2   203  ARG203     -0.2864
    125  CB        42.0940    2.4360   30.4000 C.3   203  ARG203      0.0334
    126  CG        41.2930    2.6310   31.6830 C.3   203  ARG203      0.0492
    127  CD        39.9870    1.8570   31.7300 C.3   203  ARG203      0.2205
    128  NE        40.1010    0.3940   31.6350 N.pl3 203  ARG203     -0.0865
    129  CZ        39.1580   -0.3670   31.0810 C.cat 203  ARG203      0.5346
    130  NH1       38.0610    0.1880   30.5800 N.pl3 203  ARG203      0.1354
    131  NH2       39.2920   -1.6750   31.0400 N.pl3 203  ARG203      0.1354
    132  N         39.3140    7.2620   31.5840 N.3   205  LEU205     -0.1245
    133  CA        39.3560    7.5520   33.0180 C.3   205  LEU205      0.1561
    134  C         38.0090    8.0180   33.5520 C.2   205  LEU205      0.2260
    135  O         37.2910    8.7300   32.8590 O.2   205  LEU205     -0.2867
    136  CB        40.4310    8.6040   33.3400 C.3   205  LEU205      0.0270
    137  CG        41.8650    8.2310   32.9680 C.3   205  LEU205      0.0019
    138  CD1       42.7910    9.3960   33.2690 C.3   205  LEU205      0.0001
    139  CD2       42.3280    6.9520   33.7210 C.3   205  LEU205      0.0001
    140  N         49.4440    5.2440   43.7760 N.3   295  GLN295     -0.1231
    141  CA        49.4860    5.3580   42.3240 C.3   295  GLN295      0.1698
    142  C         50.7580    6.0070   41.8640 C.2   295  GLN295      0.2592
    143  O         51.3070    5.6750   40.8250 O.2   295  GLN295     -0.2718
    144  CB        48.3170    6.1530   41.8000 C.3   295  GLN295      0.0381
    145  CG        47.0580    5.3330   42.0780 C.3   295  GLN295      0.0905
    146  CD        45.7760    5.8850   41.4920 C.2   295  GLN295      0.2608
    147  OE1       45.7780    6.5810   40.4780 O.2   295  GLN295     -0.2717
    148  NE2       44.6700    5.5950   42.1590 N.am  295  GLN295     -0.0878
    149  N         51.2480    6.9700   42.6390 N.am  296  LEU296     -0.1980
    150  CA        52.5080    7.5910   42.2750 C.3   296  LEU296      0.1596
    151  C         53.6740    6.6070   42.4370 C.2   296  LEU296      0.2287
    152  O         54.6470    6.7000   41.7100 O.2   296  LEU296     -0.2864
    153  CB        52.7280    8.9150   43.0000 C.3   296  LEU296      0.0297
    154  CG        51.6340    9.9250   42.6970 C.3   296  LEU296      0.0022
    155  CD1       52.0860   11.2360   43.3800 C.3   296  LEU296      0.0001
    156  CD2       51.5560   10.2260   41.1500 C.3   296  LEU296      0.0001
    157  N         53.7260    4.6150   39.1760 N.3   299  ILE299     -0.1245
    158  CA        54.2940    5.3970   38.1080 C.3   299  ILE299      0.1561
    159  C         55.8160    5.5140   38.2860 C.2   299  ILE299      0.2260
    160  O         56.5680    5.4120   37.3170 O.2   299  ILE299     -0.2867
    161  CB        53.6100    6.7630   38.0510 C.3   299  ILE299      0.0252
    162  CG1       52.1540    6.5730   37.5600 C.3   299  ILE299      0.0019
    163  CG2       54.3840    7.7010   37.1210 C.3   299  ILE299      0.0019
    164  CD1       51.2890    7.8050   37.6820 C.3   299  ILE299      0.0001
@<TRIPOS>BOND
     1   120   118    1
     2    53    52    1
     3   103   104    1
     4    58    57    2
     5   119   118    1
     6    54    52    1
     7   118   115    1
     8   104   105    1
     9   104   107    1
    10    57    56    1
    11    52    49    1
    12   105   114   am
    13   105   106    2
    14   114   115    1
    15   115   116    1
    16   107   108    1
    17    49    50    1
    18    49    48    1
    19    56    55    1
    20    56    59    1
    21    55    50   am
    22    50    51    2
    23   117   116    2
    24   116   121   am
    25    59    60    1
    26   108   109    1
    27    60    62    1
    28    60    61    1
    29    48    44   am
    30    99    98    2
    31    90    91    1
    32    98    97    1
    33    45    44    2
    34   121   122    1
    35    44    43    1
    36    91    92    1
    37    91    94    1
    38    92    93    2
    39   109   110    1
    40    97    96    1
    41    97   100    1
    42   122   123    1
    43   122   125    1
    44    42    43    1
    45    43    46    1
    46   123   124    2
    47    94    95    1
    48   110   111    2
    49    66    65    2
    50    82    81    2
    51    63    64    1
    52   100   101    1
    53   100   102    1
    54   125   126    1
    55   130   129    1
    56    65    64    1
    57   111   112    1
    58   111   113    1
    59    81    80    1
    60    46    47    1
    61   131   129    1
    62   129   128    2
    63    64    67    1
    64   132   133    1
    65   128   127    1
    66    88    86   ar
    67    88    89   ar
    68   126   127    1
    69    71    72    1
    70    86    84   ar
    71    69    68    2
    72    79    80    1
    73    79    73   am
    74    80    83    1
    75    89    87   ar
    76    67    68    1
    77    68    70   am
    78    84    83    1
    79    84    85   ar
    80   135   134    2
    81   137   138    1
    82   137   136    1
    83   137   139    1
    84    76    75    1
    85    76    77    1
    86    76    78    1
    87   133   136    1
    88   133   134    1
    89    72    75    1
    90    72    73    1
    91    87    85   ar
    92    73    74    2
    93    41    39   ar
    94    41    40   ar
    95    39    37   ar
    96   163   161    1
    97    40    38   ar
    98   160   159    2
    99   162   164    1
   100   162   161    1
   101   161   158    1
   102   158   159    1
   103   158   157    1
   104    37    36   ar
   105    38    36   ar
   106    20    18   am
   107    36    35    1
   108    19    18    2
   109    18    17    1
   110    15    14    2
   111    17    16    1
   112   147   146    2
   113    16    13    1
   114    33    32    1
   115    33    34    2
   116    35    32    1
   117    32    31    1
   118    14    21   am
   119    14    13    1
   120   143   142    2
   121    22    21    1
   122    22    23    1
   123   156   154    1
   124    13    12    1
   125   146   145    1
   126   146   148   am
   127   152   151    2
   128    12    10   am
   129   144   145    1
   130   144   141    1
   131   142   141    1
   132   142   149   am
   133    23    24    2
   134    23    25   am
   135   150   151    1
   136   150   149    1
   137   150   153    1
   138   141   140    1
   139    10     9    1
   140    10    11    2
   141     9     8    1
   142   154   153    1
   143   154   155    1
   144    25    26    1
   145     8     3   am
   146    30    29    1
   147    26    29    1
   148    26    27    1
   149     3     2    1
   150     3     4    2
   151     2     5    1
   152     2     1    1
   153    27    28    2
   154     5     6    1
   155     1     7    1
   156     6     7    1
