@<TRIPOS>MOLECULE
tmp/2c2oA00.pdb
 117 113 0 0 0
SMALL
GASTEIGER

@<TRIPOS>ATOM
      1  N         29.6420   41.9130   25.8440 N.3    33  MET33      -0.1230
      2  CA        30.1070   40.5400   25.9920 C.3    33  MET33       0.1702
      3  C         30.1050   39.8240   24.6470 C.2    33  MET33       0.2593
      4  O         29.3010   40.1290   23.7660 O.2    33  MET33      -0.2718
      5  CB        29.2360   39.7890   27.0070 C.3    33  MET33       0.0401
      6  CG        29.3290   40.3610   28.4160 C.3    33  MET33       0.0596
      7  SD        28.5100   39.3710   29.6810 S.3    33  MET33      -0.1393
      8  CE        26.9300   40.2210   29.8260 C.3    33  MET33       0.0692
      9  N         31.0220   38.8760   24.4940 N.am   34  THR34      -0.1939
     10  CA        31.1490   38.1200   23.2540 C.3    34  THR34       0.2028
     11  C         30.4160   36.7880   23.3490 C.2    34  THR34       0.2643
     12  O         30.0260   36.3560   24.4360 O.2    34  THR34      -0.2714
     13  CB        32.6320   37.8520   22.9310 C.3    34  THR34       0.1808
     14  OG1       33.2120   37.0600   23.9740 O.3    34  THR34      -0.2208
     15  CG2       33.3960   39.1640   22.8280 C.3    34  THR34       0.0379
     16  N         30.2250   36.1370   22.2070 N.am   35  SER35      -0.1935
     17  CA        29.5400   34.8560   22.1920 C.3    35  SER35       0.2055
     18  C         30.4860   33.7640   22.6890 C.2    35  SER35       0.2643
     19  O         31.7000   33.8210   22.4710 O.2    35  SER35      -0.2714
     20  CB        29.0390   34.5360   20.7810 C.3    35  SER35       0.2130
     21  OG        30.1070   34.5240   19.8540 O.3    35  SER35      -0.2179
     22  N         29.9210   32.7750   23.3690 N.am   36  ARG36      -0.1963
     23  CA        30.7050   31.6810   23.9170 C.3    36  ARG36       0.1729
     24  C         30.6850   30.4850   22.9720 C.2    36  ARG36       0.2616
     25  O         29.9300   29.5330   23.1720 O.2    36  ARG36      -0.2715
     26  CB        30.1460   31.2980   25.2930 C.3    36  ARG36       0.0348
     27  CG        30.1400   32.4620   26.2810 C.3    36  ARG36       0.0492
     28  CD        29.4290   32.1250   27.5860 C.3    36  ARG36       0.2205
     29  NE        29.9660   30.9160   28.2080 N.pl3  36  ARG36      -0.0865
     30  CZ        29.4390   29.7040   28.0670 C.cat  36  ARG36       0.5346
     31  NH1       28.3510   29.5320   27.3300 N.pl3  36  ARG36       0.1354
     32  NH2       30.0120   28.6590   28.6490 N.pl3  36  ARG36       0.1354
     33  N         31.5160   30.5350   21.9370 N.am   37  SER37      -0.1950
     34  CA        31.5630   29.4440   20.9740 C.3    37  SER37       0.1924
     35  C         31.9920   28.1430   21.6510 C.2    37  SER37       0.2314
     36  O         32.8800   28.1320   22.5130 O.2    37  SER37      -0.2863
     37  CB        32.5200   29.7780   19.8230 C.3    37  SER37       0.2116
     38  OG        33.8470   29.9300   20.2850 O.3    37  SER37      -0.2180
     39  N         27.6420   29.8710   31.0090 N.3    92  SER92      -0.1202
     40  CA        27.6540   31.2740   30.6240 C.3    92  SER92       0.2020
     41  C         28.8500   32.0320   31.1880 C.2    92  SER92       0.2619
     42  O         29.7400   31.4520   31.8090 O.2    92  SER92      -0.2717
     43  CB        26.3600   31.9410   31.1100 C.3    92  SER92       0.2103
     44  OG        26.3460   33.3330   30.8380 O.3    92  SER92      -0.2182
     45  N         28.8690   33.3380   30.9440 N.am   93  HIS93      -0.1961
     46  CA        29.9200   34.1890   31.4640 C.3    93  HIS93       0.1787
     47  C         29.5390   34.4040   32.9210 C.2    93  HIS93       0.2621
     48  O         28.3760   34.2240   33.2910 O.2    93  HIS93      -0.2715
     49  CB        29.9300   35.5460   30.7530 C.3    93  HIS93       0.0785
     50  CG        30.4400   35.5010   29.3430 C.ar   93  HIS93       0.0821
     51  ND1       31.6310   34.9000   28.9990 N.ar   93  HIS93      -0.2267
     52  CD2       29.9460   36.0390   28.2010 C.ar   93  HIS93       0.1154
     53  CE1       31.8520   35.0710   27.7070 C.ar   93  HIS93       0.1986
     54  NE2       30.8440   35.7590   27.2000 N.ar   93  HIS93      -0.2212
     55  N         30.5050   34.7880   33.7480 N.am   94  GLY94      -0.1940
     56  CA        30.1990   35.0310   35.1420 C.3    94  GLY94       0.2014
     57  C         31.3630   35.5400   35.9630 C.2    94  GLY94       0.2638
     58  O         32.4680   35.7290   35.4570 O.2    94  GLY94      -0.2714
     59  N         31.0890   35.7730   37.2410 N.am   95  GLU95      -0.1977
     60  CA        32.0820   36.2330   38.2010 C.3    95  GLU95       0.1602
     61  C         31.7130   35.5120   39.4870 C.2    95  GLU95       0.2287
     62  O         30.7320   34.7650   39.5150 O.2    95  GLU95      -0.2864
     63  CB        31.9810   37.7430   38.4180 C.3    95  GLU95       0.0415
     64  CG        31.9830   38.5590   37.1350 C.3    95  GLU95       0.1163
     65  CD        32.0990   40.0500   37.3900 C.2    95  GLU95       0.3649
     66  OE1       31.2820   40.5990   38.1610 O.co2  95  GLU95      -0.2457
     67  OE2       33.0100   40.6740   36.8130 O.co2  95  GLU95      -0.2457
     68  N         25.7910   35.3910   34.2730 N.3   100  PHE100     -0.1241
     69  CA        25.2680   36.3640   33.3180 C.3   100  PHE100      0.1605
     70  C         24.1080   35.9510   32.4370 C.2   100  PHE100      0.2264
     71  O         24.1500   34.9240   31.7620 O.2   100  PHE100     -0.2867
     72  CB        26.3950   36.8650   32.4130 C.3   100  PHE100      0.0534
     73  CG        27.2520   37.9080   33.0490 C.ar  100  PHE100     -0.0203
     74  CD1       26.8130   39.2270   33.1330 C.ar  100  PHE100     -0.0042
     75  CD2       28.4890   37.5720   33.5970 C.ar  100  PHE100     -0.0042
     76  CE1       27.5910   40.1990   33.7570 C.ar  100  PHE100     -0.0003
     77  CE2       29.2790   38.5360   34.2250 C.ar  100  PHE100     -0.0003
     78  CZ        28.8290   39.8510   34.3050 C.ar  100  PHE100     -0.0000
     79  N         29.4340   26.2550   34.7740 N.3   133  GLN133     -0.1231
     80  CA        30.5620   26.5420   33.8980 C.3   133  GLN133      0.1698
     81  C         30.5660   28.0580   33.7100 C.2   133  GLN133      0.2592
     82  O         29.7700   28.5940   32.9380 O.2   133  GLN133     -0.2718
     83  CB        30.3930   25.8380   32.5460 C.3   133  GLN133      0.0381
     84  CG        31.3710   26.2900   31.4550 C.3   133  GLN133      0.0905
     85  CD        32.8230   26.2650   31.9040 C.2   133  GLN133      0.2608
     86  OE1       33.3280   25.2390   32.3550 O.2   133  GLN133     -0.2717
     87  NE2       33.5020   27.3980   31.7780 N.am  133  GLN133     -0.0878
     88  N         31.4460   28.7420   34.4380 N.am  134  ALA134     -0.1966
     89  CA        31.5510   30.1970   34.3640 C.3   134  ALA134      0.1728
     90  C         32.7200   30.6810   35.2060 C.2   134  ALA134      0.2616
     91  O         33.1400   30.0070   36.1460 O.2   134  ALA134     -0.2715
     92  CB        30.2700   30.8390   34.8610 C.3   134  ALA134      0.0334
     93  N         33.2340   31.8570   34.8640 N.am  135  CYS135     -0.1968
     94  CA        34.3480   32.4470   35.5860 C.3   135  CYS135      0.1712
     95  C         33.9230   32.7880   37.0030 C.2   135  CYS135      0.2296
     96  O         32.7450   33.0500   37.2510 O.2   135  CYS135     -0.2864
     97  CB        34.8180   33.7220   34.8870 C.3   135  CYS135      0.0983
     98  SG        35.6690   33.4500   33.3370 S.3   135  CYS135     -0.0798
     99  N         36.2310   34.8440   38.7660 N.3   137  GLY137     -0.1210
    100  CA        37.2060   35.8810   39.0360 C.3   137  GLY137      0.1956
    101  C         38.0940   36.0630   37.8200 C.2   137  GLY137      0.2612
    102  O         37.7840   35.5610   36.7390 O.2   137  GLY137     -0.2717
    103  N         39.2080   36.7660   37.9960 N.am  138  THR138     -0.1952
    104  CA        40.1250   37.0170   36.8930 C.3   138  THR138      0.1897
    105  C         41.5380   36.5020   37.1440 C.2   138  THR138      0.2313
    106  O         42.4900   36.9250   36.4870 O.2   138  THR138     -0.2863
    107  CB        40.1950   38.5190   36.5900 C.3   138  THR138      0.1794
    108  OG1       40.5940   39.2320   37.7700 O.3   138  THR138     -0.2208
    109  CG2       38.8460   39.0180   36.1430 C.3   138  THR138      0.0378
    110  N         44.6360   33.8120   37.0820 N.3   140  LEU140     -0.1245
    111  CA        45.1170   32.7860   36.1650 C.3   140  LEU140      0.1561
    112  C         46.0470   31.8510   36.9030 C.2   140  LEU140      0.2260
    113  O         46.8910   32.2880   37.6830 O.2   140  LEU140     -0.2867
    114  CB        45.8600   33.4310   34.9970 C.3   140  LEU140      0.0270
    115  CG        44.9430   34.2220   34.0640 C.3   140  LEU140      0.0019
    116  CD1       45.7360   35.2740   33.2960 C.3   140  LEU140      0.0001
    117  CD2       44.2380   33.2480   33.1260 C.3   140  LEU140      0.0001
@<TRIPOS>BOND
     1    37    38    1
     2    37    34    1
     3    21    20    1
     4    20    17    1
     5    34    35    1
     6    34    33    1
     7    35    36    2
     8    33    24   am
     9    17    16    1
    10    17    18    1
    11    16    11   am
    12    19    18    2
    13    18    22   am
    14    15    13    1
    15    13    10    1
    16    13    14    1
    17    24    25    2
    18    24    23    1
    19    10    11    1
    20    10     9    1
    21    11    12    2
    22    22    23    1
    23     4     3    2
    24    23    26    1
    25     9     3   am
    26     3     2    1
    27    26    27    1
    28     1     2    1
    29     2     5    1
    30    27    28    1
    31     5     6    1
    32    54    53   ar
    33    54    52   ar
    34    31    30    1
    35    28    29    1
    36    53    51   ar
    37    30    29    2
    38    30    32    1
    39    52    50   ar
    40     6     7    1
    41    51    50   ar
    42    50    49    1
    43     7     8    1
    44    40    39    1
    45    40    43    1
    46    40    41    1
    47    49    46    1
    48    44    43    1
    49    45    41   am
    50    45    46    1
    51    41    42    2
    52    84    85    1
    53    84    83    1
    54    46    47    1
    55    71    70    2
    56    87    85   am
    57    85    86    2
    58    72    73    1
    59    72    69    1
    60    70    69    1
    61    83    80    1
    62    47    48    2
    63    47    55   am
    64    82    81    2
    65    73    74   ar
    66    73    75   ar
    67   117   115    1
    68    74    76   ar
    69   116   115    1
    70    69    68    1
    71    98    97    1
    72    75    77   ar
    73    81    80    1
    74    81    88   am
    75    55    56    1
    76    76    78   ar
    77    80    79    1
    78   115   114    1
    79    77    78   ar
    80    89    88    1
    81    89    92    1
    82    89    90    1
    83    93    90   am
    84    93    94    1
    85    97    94    1
    86   114   111    1
    87    56    57    1
    88    90    91    2
    89    58    57    2
    90    94    95    1
    91    57    59   am
    92   109   107    1
    93   111   112    1
    94   111   110    1
    95   106   105    2
    96   107   104    1
    97   107   108    1
    98   102   101    2
    99    67    65   ar
   100   104   105    1
   101   104   103    1
   102   112   113    2
   103    95    96    2
   104    64    65    1
   105    64    63    1
   106    59    60    1
   107    65    66   ar
   108   101   103   am
   109   101   100    1
   110    60    63    1
   111    60    61    1
   112    99   100    1
   113    61    62    2
