@<TRIPOS>MOLECULE
tmp/2c2tB01.pdb
 132 128 0 0 0
SMALL
GASTEIGER

@<TRIPOS>ATOM
      1  N         18.9100   45.4730   20.4280 N.3     7  ILE7       -0.1231
      2  CA        19.9100   45.2320   19.3910 C.3     7  ILE7        0.1692
      3  C         20.7110   43.9930   19.7270 C.2     7  ILE7        0.2592
      4  O         21.1350   43.7930   20.8780 O.2     7  ILE7       -0.2718
      5  CB        20.8050   46.4740   19.1950 C.3     7  ILE7        0.0266
      6  CG1       21.7320   46.3120   17.9880 C.3     7  ILE7        0.0019
      7  CG2       21.5050   46.8700   20.4900 C.3     7  ILE7        0.0020
      8  CD1       22.2950   47.6810   17.4490 C.3     7  ILE7        0.0001
      9  N         20.8800   43.1480   18.7180 N.am    8  VAL8       -0.1966
     10  CA        21.5020   41.8320   18.8830 C.3     8  VAL8        0.1727
     11  C         22.1300   41.3930   17.5650 C.2     8  VAL8        0.2616
     12  O         21.6910   41.8440   16.5020 O.2     8  VAL8       -0.2715
     13  CB        20.4340   40.7660   19.2960 C.3     8  VAL8        0.0290
     14  CG1       19.4490   40.4890   18.1300 C.3     8  VAL8        0.0023
     15  CG2       21.0940   39.4840   19.8120 C.3     8  VAL8        0.0023
     16  N         23.1410   40.5330   17.6520 N.am    9  ALA9       -0.1977
     17  CA        23.7140   39.8170   16.5070 C.3     9  ALA9        0.1597
     18  C         23.5490   38.3310   16.8330 C.2     9  ALA9        0.2287
     19  O         23.8410   37.8930   17.9570 O.2     9  ALA9       -0.2864
     20  CB        25.2060   40.1790   16.3290 C.3     9  ALA9        0.0319
     21  N         31.4020   36.1730   22.2740 N.3    22  LEU22      -0.1245
     22  CA        30.5880   35.9230   21.0820 C.3    22  LEU22       0.1561
     23  C         30.9870   34.5880   20.4660 C.2    22  LEU22       0.2260
     24  O         32.1180   34.1210   20.6590 O.2    22  LEU22      -0.2867
     25  CB        30.7350   37.0490   20.0790 C.3    22  LEU22       0.0270
     26  CG        30.4280   38.4500   20.6050 C.3    22  LEU22       0.0019
     27  CD1       30.6340   39.4680   19.4740 C.3    22  LEU22       0.0001
     28  CD2       29.0160   38.5710   21.1350 C.3    22  LEU22       0.0001
     29  N         31.3430   33.8860   17.2640 N.3    24  TRP24      -0.1241
     30  CA        32.0830   34.1410   16.0210 C.3    24  TRP24       0.1605
     31  C         33.2960   35.0420   16.2920 C.2    24  TRP24       0.2264
     32  O         33.3250   35.7610   17.3250 O.2    24  TRP24      -0.2867
     33  CB        31.1910   34.7950   14.9480 C.3    24  TRP24       0.0550
     34  CG        30.2970   35.8750   15.4710 C.ar   24  TRP24       0.0003
     35  CD1       30.6020   37.2040   15.6090 C.ar   24  TRP24       0.0946
     36  CD2       28.9850   35.7040   16.0020 C.ar   24  TRP24       0.0152
     37  NE1       29.5470   37.8750   16.1870 N.ar   24  TRP24      -0.2442
     38  CE2       28.5380   36.9700   16.4260 C.ar   24  TRP24       0.0810
     39  CE3       28.1300   34.6000   16.1330 C.ar   24  TRP24       0.0012
     40  CZ2       27.2940   37.1450   17.0000 C.ar   24  TRP24       0.0191
     41  CZ3       26.8870   34.7860   16.6810 C.ar   24  TRP24       0.0001
     42  CH2       26.4910   36.0390   17.1300 C.ar   24  TRP24       0.0015
     43  N         30.5940   45.3750   12.2490 N.3    30  GLU30      -0.1231
     44  CA        29.3540   44.9840   12.9200 C.3    30  GLU30       0.1699
     45  C         29.3410   45.6470   14.3170 C.2    30  GLU30       0.2592
     46  O         28.3590   46.2560   14.7210 O.2    30  GLU30      -0.2718
     47  CB        29.2320   43.4480   12.9950 C.3    30  GLU30       0.0402
     48  CG        27.7800   42.9480   13.0560 C.3    30  GLU30       0.1161
     49  CD        27.0960   43.2520   14.3790 C.2    30  GLU30       0.3649
     50  OE1       25.9030   43.6660   14.3530 O.co2  30  GLU30      -0.2457
     51  OE2       27.7290   43.0550   15.4520 O.co2  30  GLU30      -0.2457
     52  N         30.4780   45.5860   15.0000 N.am   31  PHE31      -0.1976
     53  CA        30.6670   46.3150   16.2540 C.3    31  PHE31       0.1639
     54  C         30.4390   47.8280   16.0730 C.2    31  PHE31       0.2290
     55  O         29.7440   48.4460   16.8680 O.2    31  PHE31      -0.2864
     56  CB        32.0550   46.0800   16.8090 C.3    31  PHE31       0.0560
     57  CG        32.3470   46.8970   18.0150 C.ar   31  PHE31      -0.0200
     58  CD1       31.7270   46.6100   19.2330 C.ar   31  PHE31      -0.0042
     59  CD2       33.2200   47.9710   17.9500 C.ar   31  PHE31      -0.0042
     60  CE1       31.9980   47.3920   20.3760 C.ar   31  PHE31      -0.0003
     61  CE2       33.4900   48.7460   19.0840 C.ar   31  PHE31      -0.0003
     62  CZ        32.8790   48.4530   20.2880 C.ar   31  PHE31      -0.0000
     63  N         28.6130   49.2990   13.9430 N.3    33  TYR33      -0.1227
     64  CA        27.1810   49.5120   13.7110 C.3    33  TYR33       0.1736
     65  C         26.4960   49.5750   15.0550 C.2    33  TYR33       0.2595
     66  O         25.6930   50.4820   15.3020 O.2    33  TYR33      -0.2718
     67  CB        26.6050   48.3700   12.8800 C.3    33  TYR33       0.0548
     68  CG        25.0990   48.3470   12.7370 C.ar   33  TYR33      -0.0200
     69  CD1       24.3240   47.4110   13.4510 C.ar   33  TYR33      -0.0009
     70  CD2       24.4490   49.1790   11.8500 C.ar   33  TYR33      -0.0009
     71  CE1       22.9610   47.3650   13.3090 C.ar   33  TYR33       0.0417
     72  CE2       23.0640   49.1120   11.6840 C.ar   33  TYR33       0.0417
     73  CZ        22.3380   48.2020   12.4170 C.ar   33  TYR33       0.1957
     74  OH        20.9850   48.0870   12.2550 O.3    33  TYR33      -0.2866
     75  N         26.8100   48.6120   15.9240 N.am   34  PHE34      -0.1976
     76  CA        26.2650   48.5990   17.2720 C.3    34  PHE34       0.1639
     77  C         26.5860   49.9040   17.9840 C.2    34  PHE34       0.2290
     78  O         25.7120   50.5180   18.6000 O.2    34  PHE34      -0.2864
     79  CB        26.7820   47.4020   18.0810 C.3    34  PHE34       0.0560
     80  CG        26.4740   47.4980   19.5390 C.ar   34  PHE34      -0.0200
     81  CD1       25.2900   47.0100   20.0410 C.ar   34  PHE34      -0.0042
     82  CD2       27.3480   48.1310   20.4060 C.ar   34  PHE34      -0.0042
     83  CE1       24.9860   47.1300   21.3730 C.ar   34  PHE34      -0.0003
     84  CE2       27.0480   48.2470   21.7360 C.ar   34  PHE34      -0.0003
     85  CZ        25.8830   47.7340   22.2260 C.ar   34  PHE34      -0.0000
     86  N         26.5090   39.9330   30.6460 N.3    56  THR56      -0.1218
     87  CA        26.9000   40.7650   29.5120 C.3    56  THR56       0.1862
     88  C         27.8500   41.8660   29.9610 C.2    56  THR56       0.2287
     89  O         28.8860   42.1070   29.3140 O.2    56  THR56      -0.2866
     90  CB        25.6650   41.2980   28.7590 C.3    56  THR56       0.1770
     91  OG1       24.9610   40.1860   28.1930 O.3    56  THR56      -0.2211
     92  CG2       26.0480   42.2360   27.6420 C.3    56  THR56       0.0375
     93  N         31.2600   40.5450   30.4500 N.3    59  SER59      -0.1202
     94  CA        31.8610   40.1180   29.1830 C.3    59  SER59       0.2020
     95  C         32.5520   41.2550   28.4430 C.2    59  SER59       0.2618
     96  O         33.2650   40.9950   27.4840 O.2    59  SER59      -0.2717
     97  CB        30.8180   39.4790   28.2660 C.3    59  SER59       0.2103
     98  OG        29.9740   40.4640   27.6780 O.3    59  SER59      -0.2182
     99  N         32.2900   42.5090   28.8290 N.am   60  ILE60      -0.1979
    100  CA        32.9660   43.6590   28.2160 C.3    60  ILE60       0.1595
    101  C         34.3610   43.8000   28.8580 C.2    60  ILE60       0.2287
    102  O         34.4810   43.7360   30.0740 O.2    60  ILE60      -0.2864
    103  CB        32.1630   44.9850   28.4350 C.3    60  ILE60       0.0276
    104  CG1       30.7110   44.8450   27.9850 C.3    60  ILE60       0.0022
    105  CG2       32.8190   46.1740   27.6920 C.3    60  ILE60       0.0022
    106  CD1       29.7950   45.9980   28.4270 C.3    60  ILE60       0.0001
    107  N         20.6100   45.6090   25.2470 N.3   115  VAL115     -0.1245
    108  CA        21.7630   45.0070   24.5800 C.3   115  VAL115      0.1561
    109  C         22.0820   43.5590   25.0460 C.2   115  VAL115      0.2260
    110  O         23.1410   43.0320   24.7090 O.2   115  VAL115     -0.2867
    111  CB        23.0190   45.9430   24.6610 C.3   115  VAL115      0.0252
    112  CG1       22.7230   47.3810   24.0790 C.3   115  VAL115      0.0019
    113  CG2       23.5570   45.9970   26.1130 C.3   115  VAL115      0.0019
    114  N         16.5080   40.2930   26.6590 N.3   121  TYR121     -0.1241
    115  CA        15.7780   40.3540   25.3780 C.3   121  TYR121      0.1605
    116  C         14.3620   39.8060   25.4890 C.2   121  TYR121      0.2264
    117  O         13.4270   40.4200   24.9860 O.2   121  TYR121     -0.2867
    118  CB        16.4790   39.5670   24.2720 C.3   121  TYR121      0.0534
    119  CG        17.7910   40.1370   23.7900 C.ar  121  TYR121     -0.0201
    120  CD1       18.9090   39.3350   23.7040 C.ar  121  TYR121     -0.0009
    121  CD2       17.9090   41.4480   23.3900 C.ar  121  TYR121     -0.0009
    122  CE1       20.1190   39.8180   23.2540 C.ar  121  TYR121      0.0417
    123  CE2       19.1170   41.9390   22.9080 C.ar  121  TYR121      0.0417
    124  CZ        20.2150   41.1220   22.8350 C.ar  121  TYR121      0.1957
    125  OH        21.4170   41.5990   22.3750 O.3   121  TYR121     -0.2866
    126  N         21.1160   41.6300   13.6600 N.3   136  THR136     -0.1218
    127  CA        22.1120   41.2570   12.6620 C.3   136  THR136      0.1862
    128  C         22.0700   39.7460   12.5070 C.2   136  THR136      0.2287
    129  O         22.3330   39.0060   13.4540 O.2   136  THR136     -0.2866
    130  CB        23.5260   41.7420   13.0490 C.3   136  THR136      0.1770
    131  OG1       23.5230   43.1730   13.2180 O.3   136  THR136     -0.2211
    132  CG2       24.5540   41.3480   12.0110 C.3   136  THR136      0.0375
@<TRIPOS>BOND
     1    72    70   ar
     2    72    73   ar
     3    70    68   ar
     4   132   130    1
     5    43    44    1
     6    74    73    1
     7    73    71   ar
     8   128   127    1
     9   128   129    2
    10   127   130    1
    11   127   126    1
    12    68    67    1
    13    68    69   ar
    14    67    64    1
    15    44    47    1
    16    44    45    1
    17    47    48    1
    18   130   131    1
    19    48    49    1
    20    71    69   ar
    21    64    63    1
    22    64    65    1
    23    45    46    2
    24    45    52   am
    25    50    49   ar
    26    49    51   ar
    27    33    34    1
    28    33    30    1
    29    52    53    1
    30    65    66    2
    31    65    75   am
    32    34    35   ar
    33    34    36   ar
    34    35    37   ar
    35    75    76    1
    36    36    39   ar
    37    36    38   ar
    38    30    31    1
    39    30    29    1
    40    54    53    1
    41    54    55    2
    42    39    41   ar
    43    37    38   ar
    44    53    56    1
    45    31    32    2
    46    20    17    1
    47    38    40   ar
    48    12    11    2
    49    17    18    1
    50    17    16    1
    51    41    42   ar
    52    56    57    1
    53    18    19    2
    54    40    42   ar
    55    76    77    1
    56    76    79    1
    57     8     6    1
    58    11    16   am
    59    11    10    1
    60    59    57   ar
    61    59    61   ar
    62    77    78    2
    63     6     5    1
    64    57    58   ar
    65    79    80    1
    66    14    13    1
    67     9    10    1
    68     9     3   am
    69    10    13    1
    70    61    62   ar
    71     5     2    1
    72     5     7    1
    73    58    60   ar
    74    13    15    1
    75     2     3    1
    76     2     1    1
    77    27    26    1
    78    80    81   ar
    79    80    82   ar
    80     3     4    2
    81    81    83   ar
    82    25    26    1
    83    25    22    1
    84    62    60   ar
    85    82    84   ar
    86    23    24    2
    87    23    22    1
    88    26    28    1
    89    22    21    1
    90    83    85   ar
    91    84    85   ar
    92   125   124    1
    93   124   123   ar
    94   124   122   ar
    95   123   121   ar
    96   122   120   ar
    97   121   119   ar
    98   120   119   ar
    99   119   118    1
   100   112   111    1
   101   118   115    1
   102   108   111    1
   103   108   109    1
   104   108   107    1
   105   111   113    1
   106   110   109    2
   107   117   116    2
   108   115   116    1
   109   115   114    1
   110    96    95    2
   111    92    90    1
   112    98    97    1
   113   105   103    1
   114   104   106    1
   115   104   103    1
   116    91    90    1
   117   100   103    1
   118   100    99    1
   119   100   101    1
   120    97    94    1
   121    95    99   am
   122    95    94    1
   123    90    87    1
   124   101   102    2
   125    94    93    1
   126    89    88    2
   127    87    88    1
   128    87    86    1
