@<TRIPOS>MOLECULE
tmp/2c2zA00.pdb
 163 161 0 0 0
SMALL
GASTEIGER

@<TRIPOS>ATOM
      1  N        -16.2350   50.4210   36.7410 N.3    31  LYS31      -0.1231
      2  CA       -16.6800   49.1240   37.2430 C.3    31  LYS31       0.1693
      3  C        -15.5430   48.2230   37.7240 C.2    31  LYS31       0.2592
      4  O        -15.7900   47.1410   38.2560 O.2    31  LYS31      -0.2718
      5  CB       -17.4860   48.3860   36.1710 C.3    31  LYS31       0.0285
      6  CG       -16.6600   47.8600   35.0100 C.3    31  LYS31       0.0035
      7  CD       -17.5130   47.0030   34.0880 C.3    31  LYS31       0.0206
      8  CE       -16.6960   46.4220   32.9460 C.3    31  LYS31       0.1093
      9  NZ       -17.5370   45.5690   32.0610 N.3    31  LYS31      -0.1314
     10  N        -14.3040   48.6650   37.5360 N.am   32  LEU32      -0.1966
     11  CA       -13.1440   47.8810   37.9560 C.3    32  LEU32       0.1728
     12  C        -12.4200   48.5650   39.1120 C.2    32  LEU32       0.2616
     13  O        -11.2300   48.3370   39.3370 O.2    32  LEU32      -0.2715
     14  CB       -12.1740   47.6950   36.7840 C.3    32  LEU32       0.0311
     15  CG       -12.7250   47.0670   35.5010 C.3    32  LEU32       0.0022
     16  CD1      -11.5900   46.8760   34.5040 C.3    32  LEU32       0.0001
     17  CD2      -13.3770   45.7370   35.8120 C.3    32  LEU32       0.0001
     18  N        -13.1520   49.3970   39.8450 N.am   33  HIS33      -0.1959
     19  CA       -12.5950   50.1350   40.9710 C.3    33  HIS33       0.1787
     20  C        -11.9470   49.2400   42.0210 C.2    33  HIS33       0.2621
     21  O        -11.0360   49.6690   42.7300 O.2    33  HIS33      -0.2715
     22  CB       -13.6910   50.9810   41.6250 C.3    33  HIS33       0.0785
     23  CG       -14.8410   50.1770   42.1470 C.ar   33  HIS33       0.0821
     24  ND1      -14.7470   49.3860   43.2720 N.ar   33  HIS33      -0.2267
     25  CD2      -16.1020   50.0190   41.6820 C.ar   33  HIS33       0.1154
     26  CE1      -15.9000   48.7760   43.4770 C.ar   33  HIS33       0.1986
     27  NE2      -16.7400   49.1430   42.5260 N.ar   33  HIS33      -0.2212
     28  N        -12.4050   47.9950   42.1170 N.am   34  SER34      -0.1936
     29  CA       -11.8600   47.0750   43.1060 C.3    34  SER34       0.2055
     30  C        -11.1920   45.8180   42.5530 C.2    34  SER34       0.2643
     31  O        -10.9810   44.8580   43.2910 O.2    34  SER34      -0.2714
     32  CB       -12.9560   46.6740   44.0990 C.3    34  SER34       0.2130
     33  OG       -13.3590   47.7890   44.8770 O.3    34  SER34      -0.2179
     34  N        -10.8600   45.8130   41.2650 N.am   35  ILE35      -0.1963
     35  CA       -10.1980   44.6510   40.6840 C.3    35  ILE35       0.1727
     36  C         -8.8340   44.5760   41.3670 C.2    35  ILE35       0.2616
     37  O         -8.1230   45.5790   41.4570 O.2    35  ILE35      -0.2715
     38  CB       -10.0400   44.7980   39.1470 C.3    35  ILE35       0.0290
     39  CG1       -9.5560   43.4790   38.5450 C.3    35  ILE35       0.0022
     40  CG2       -9.0780   45.9310   38.8140 C.3    35  ILE35       0.0023
     41  CD1       -9.5140   43.4820   37.0260 C.3    35  ILE35       0.0001
     42  N         -8.4740   43.3980   41.8650 N.am   36  ARG36      -0.1963
     43  CA        -7.2100   43.2500   42.5780 C.3    36  ARG36       0.1729
     44  C         -6.0580   42.7030   41.7500 C.2    36  ARG36       0.2616
     45  O         -6.2660   42.0190   40.7500 O.2    36  ARG36      -0.2715
     46  CB        -7.4120   42.3690   43.8150 C.3    36  ARG36       0.0348
     47  CG        -8.5160   42.8610   44.7440 C.3    36  ARG36       0.0492
     48  CD        -8.3380   44.3340   45.0950 C.3    36  ARG36       0.2205
     49  NE        -9.4050   44.8220   45.9650 N.pl3  36  ARG36      -0.0865
     50  CZ        -9.5670   46.0960   46.3100 C.cat  36  ARG36       0.5346
     51  NH1       -8.7300   47.0210   45.8590 N.pl3  36  ARG36       0.1354
     52  NH2      -10.5670   46.4450   47.1090 N.pl3  36  ARG36       0.1354
     53  N         -4.8360   43.0180   42.1700 N.am   37  ASP37      -0.1957
     54  CA        -3.6610   42.5370   41.4610 C.3    37  ASP37       0.1840
     55  C         -3.6720   41.0170   41.5430 C.2    37  ASP37       0.2622
     56  O         -4.1970   40.4450   42.5000 O.2    37  ASP37      -0.2715
     57  CB        -2.3830   43.1050   42.0790 C.3    37  ASP37       0.1450
     58  CG        -2.3040   44.6190   41.9580 C.2    37  ASP37       0.3671
     59  OD1       -2.9700   45.1870   41.0630 O.co2  37  ASP37      -0.2456
     60  OD2       -1.5640   45.2390   42.7480 O.co2  37  ASP37      -0.2456
     61  N         -3.0930   40.3680   40.5400 N.am   38  ARG38      -0.1963
     62  CA        -3.0880   38.9130   40.4780 C.3    38  ARG38       0.1729
     63  C         -1.8930   38.2730   41.1750 C.2    38  ARG38       0.2616
     64  O         -1.0160   37.6970   40.5360 O.2    38  ARG38      -0.2715
     65  CB        -3.1680   38.4830   39.0090 C.3    38  ARG38       0.0348
     66  CG        -4.3770   39.0870   38.2840 C.3    38  ARG38       0.0492
     67  CD        -4.5350   38.5800   36.8420 C.3    38  ARG38       0.2205
     68  NE        -4.6070   37.1220   36.7920 N.pl3  38  ARG38      -0.0865
     69  CZ        -3.5840   36.3310   36.4820 C.cat  38  ARG38       0.5346
     70  NH1       -2.4020   36.8540   36.1780 N.pl3  38  ARG38       0.1354
     71  NH2       -3.7360   35.0120   36.5020 N.pl3  38  ARG38       0.1354
     72  N         -1.8740   38.3680   42.5000 N.am   39  ASN39      -0.1972
     73  CA        -0.7850   37.8030   43.2820 C.3    39  ASN39       0.1688
     74  C         -0.6460   36.3040   43.0540 C.2    39  ASN39       0.2292
     75  O         -1.6340   35.5700   43.0540 O.2    39  ASN39      -0.2864
     76  CB        -0.9970   38.0970   44.7680 C.3    39  ASN39       0.1181
     77  CG        -0.9090   39.5760   45.0770 C.2    39  ASN39       0.2629
     78  OD1       -0.0280   40.2670   44.5720 O.2    39  ASN39      -0.2716
     79  ND2       -1.8140   40.0670   45.9140 N.am   39  ASN39      -0.0877
     80  N         -4.2170   36.5920   32.9490 N.3    94  SER94      -0.1202
     81  CA        -4.7830   37.8870   33.3040 C.3    94  SER94       0.2020
     82  C         -6.2090   37.7400   33.8060 C.2    94  SER94       0.2619
     83  O         -6.7080   36.6290   33.9890 O.2    94  SER94      -0.2717
     84  CB        -4.7670   38.7910   32.0600 C.3    94  SER94       0.2103
     85  OG        -5.1670   40.1240   32.3380 O.3    94  SER94      -0.2182
     86  N         -6.8530   38.8740   34.0550 N.am   95  HIS95      -0.1961
     87  CA        -8.2460   38.8700   34.4680 C.3    95  HIS95       0.1787
     88  C         -9.0290   38.7950   33.1660 C.2    95  HIS95       0.2621
     89  O         -8.4760   39.0430   32.0920 O.2    95  HIS95      -0.2715
     90  CB        -8.6070   40.1610   35.2020 C.3    95  HIS95       0.0785
     91  CG        -8.2610   40.1450   36.6570 C.ar   95  HIS95       0.0821
     92  ND1       -8.8050   39.2340   37.5380 N.ar   95  HIS95      -0.2267
     93  CD2       -7.4470   40.9410   37.3900 C.ar   95  HIS95       0.1154
     94  CE1       -8.3420   39.4710   38.7530 C.ar   95  HIS95       0.1986
     95  NE2       -7.5170   40.5020   38.6910 N.ar   95  HIS95      -0.2212
     96  N        -10.3090   38.4520   33.2500 N.am   96  GLY96      -0.1940
     97  CA       -11.1050   38.3690   32.0430 C.3    96  GLY96       0.2014
     98  C        -12.5930   38.3760   32.3260 C.2    96  GLY96       0.2638
     99  O        -13.0190   38.4680   33.4780 O.2    96  GLY96      -0.2714
    100  N        -13.3770   38.2930   31.2580 N.am   97  ASP97      -0.1971
    101  CA       -14.8320   38.2760   31.3450 C.3    97  ASP97       0.1709
    102  C        -15.3080   37.4640   30.1460 C.2    97  ASP97       0.2293
    103  O        -14.4930   36.9120   29.4060 O.2    97  ASP97      -0.2864
    104  CB       -15.3920   39.6970   31.2670 C.3    97  ASP97       0.1436
    105  CG       -16.7910   39.8130   31.8570 C.2    97  ASP97       0.3671
    106  OD1      -17.5230   38.8010   31.8990 O.co2  97  ASP97      -0.2456
    107  OD2      -17.1640   40.9300   32.2700 O.co2  97  ASP97      -0.2456
    108  N         -8.6810   40.9880   30.0580 N.3   102  TYR102     -0.1241
    109  CA        -8.4140   42.3870   30.3520 C.3   102  TYR102      0.1605
    110  C         -6.9410   42.7320   30.2750 C.2   102  TYR102      0.2264
    111  O         -6.0780   41.9230   30.6180 O.2   102  TYR102     -0.2867
    112  CB        -8.9000   42.7360   31.7600 C.3   102  TYR102      0.0534
    113  CG       -10.3930   42.8870   31.9090 C.ar  102  TYR102     -0.0201
    114  CD1      -11.0650   43.9670   31.3390 C.ar  102  TYR102     -0.0009
    115  CD2      -11.1300   41.9730   32.6590 C.ar  102  TYR102     -0.0009
    116  CE1      -12.4370   44.1360   31.5160 C.ar  102  TYR102      0.0417
    117  CE2      -12.4970   42.1310   32.8420 C.ar  102  TYR102      0.0417
    118  CZ       -13.1440   43.2140   32.2710 C.ar  102  TYR102      0.1957
    119  OH       -14.4920   43.3780   32.4710 O.3   102  TYR102     -0.2866
    120  N         -5.6120   31.7290   30.7480 N.3   136  GLN136     -0.1231
    121  CA        -5.9180   31.6250   32.1680 C.3   136  GLN136      0.1698
    122  C         -6.5620   32.9370   32.6020 C.2   136  GLN136      0.2592
    123  O         -5.8750   33.9370   32.8060 O.2   136  GLN136     -0.2718
    124  CB        -4.6400   31.3760   32.9760 C.3   136  GLN136      0.0381
    125  CG        -4.7870   31.5420   34.4970 C.3   136  GLN136      0.0905
    126  CD        -6.0020   30.8280   35.0670 C.2   136  GLN136      0.2608
    127  OE1       -6.2180   29.6430   34.8150 O.2   136  GLN136     -0.2717
    128  NE2       -6.7990   31.5500   35.8490 N.am  136  GLN136     -0.0878
    129  N         -7.8860   32.9270   32.7210 N.am  137  ALA137     -0.1966
    130  CA        -8.6450   34.1020   33.1350 C.3   137  ALA137      0.1728
    131  C        -10.1020   33.7090   33.3470 C.2   137  ALA137      0.2616
    132  O        -10.5340   32.6530   32.8890 O.2   137  ALA137     -0.2715
    133  CB        -8.5640   35.1850   32.0600 C.3   137  ALA137      0.0334
    134  N        -10.8510   34.5510   34.0540 N.am  138  CYS138     -0.1968
    135  CA       -12.2760   34.2980   34.2640 C.3   138  CYS138      0.1712
    136  C        -12.9460   34.5550   32.9200 C.2   138  CYS138      0.2296
    137  O        -12.3920   35.2530   32.0720 O.2   138  CYS138     -0.2864
    138  CB       -12.8800   35.2850   35.2730 C.3   138  CYS138      0.0983
    139  SG       -12.4410   35.0900   37.0180 S.3   138  CYS138     -0.0798
    140  N        -16.3480   35.2750   33.1220 N.3   140  GLY140     -0.1210
    141  CA       -17.6010   35.7440   33.6920 C.3   140  GLY140      0.1956
    142  C        -17.4560   35.7950   35.2020 C.2   140  GLY140      0.2611
    143  O        -16.3870   35.4770   35.7260 O.2   140  GLY140     -0.2717
    144  N        -18.5150   36.1770   35.9100 N.am  141  ASP141     -0.1973
    145  CA       -18.4470   36.2630   37.3640 C.3   141  ASP141      0.1709
    146  C        -19.2720   35.2000   38.0820 C.2   141  ASP141      0.2293
    147  O        -19.4550   35.2640   39.2970 O.2   141  ASP141     -0.2864
    148  CB       -18.8860   37.6550   37.8330 C.3   141  ASP141      0.1436
    149  CG       -20.3220   37.9710   37.4680 C.2   141  ASP141      0.3671
    150  OD1      -21.0290   37.0730   36.9580 O.co2 141  ASP141     -0.2456
    151  OD2      -20.7460   39.1210   37.6960 O.co2 141  ASP141     -0.2456
    152  N        -20.1660   31.4660   39.6150 N.3   143  TYR143     -0.1241
    153  CA       -19.4840   30.3300   40.2160 C.3   143  TYR143      0.1605
    154  C        -20.0580   29.0700   39.5740 C.2   143  TYR143      0.2264
    155  O        -21.2730   28.8780   39.5450 O.2   143  TYR143     -0.2867
    156  CB       -19.7180   30.2930   41.7310 C.3   143  TYR143      0.0534
    157  CG       -19.0150   31.3940   42.4960 C.ar  143  TYR143     -0.0201
    158  CD1      -17.6240   31.5060   42.4780 C.ar  143  TYR143     -0.0009
    159  CD2      -19.7410   32.3280   43.2370 C.ar  143  TYR143     -0.0009
    160  CE1      -16.9720   32.5210   43.1780 C.ar  143  TYR143      0.0417
    161  CE2      -19.1010   33.3460   43.9400 C.ar  143  TYR143      0.0417
    162  CZ       -17.7170   33.4360   43.9060 C.ar  143  TYR143      0.1957
    163  OH       -17.0820   34.4390   44.6000 O.3   143  TYR143     -0.2866
@<TRIPOS>BOND
     1   103   102    2
     2   108   109    1
     3   102   101    1
     4   110   109    1
     5   110   111    2
     6   109   112    1
     7   120   121    1
     8   100   101    1
     9   100    98   am
    10   104   101    1
    11   104   105    1
    12   114   116   ar
    13   114   113   ar
    14   116   118   ar
    15   112   113    1
    16   105   106   ar
    17   105   107   ar
    18   113   115   ar
    19    97    98    1
    20    97    96    1
    21   133   130    1
    22    84    85    1
    23    84    81    1
    24     9     8    1
    25   137   136    2
    26    89    88    2
    27   121   122    1
    28   121   124    1
    29   118   119    1
    30   118   117   ar
    31    98    99    2
    32   122   129   am
    33   122   123    2
    34   115   117   ar
    35   129   130    1
    36   132   131    2
    37   136   135    1
    38     8     7    1
    39    80    81    1
    40   124   125    1
    41   140   141    1
    42   130   131    1
    43    88    96   am
    44    88    87    1
    45    81    82    1
    46   131   134   am
    47   141   142    1
    48    82    83    2
    49    82    86   am
    50   134   135    1
    51    86    87    1
    52     7     6    1
    53   135   138    1
    54    87    90    1
    55   125   126    1
    56    16    15    1
    57   127   126    2
    58     6     5    1
    59   126   128   am
    60    90    91    1
    61   142   143    2
    62   142   144   am
    63   138   139    1
    64    15    17    1
    65    15    14    1
    66   144   145    1
    67     5     2    1
    68    70    69    1
    69    69    71    1
    70    69    68    2
    71    91    93   ar
    72    91    92   ar
    73     1     2    1
    74    14    11    1
    75    68    67    1
    76    67    66    1
    77   150   149   ar
    78    41    39    1
    79     2     3    1
    80   145   148    1
    81   145   146    1
    82    93    95   ar
    83   149   151   ar
    84   149   148    1
    85    10     3   am
    86    10    11    1
    87    92    94   ar
    88     3     4    2
    89    11    12    1
    90   146   147    2
    91    66    65    1
    92    39    38    1
    93    95    94   ar
    94    40    38    1
    95    65    62    1
    96    12    13    2
    97    12    18   am
    98    38    35    1
    99   155   154    2
   100   154   153    1
   101   152   153    1
   102    18    19    1
   103   153   156    1
   104    62    61    1
   105    62    63    1
   106    64    63    2
   107    61    55   am
   108    35    34    1
   109    35    36    1
   110    45    44    2
   111    19    22    1
   112    19    20    1
   113    59    58   ar
   114    63    72   am
   115    34    30   am
   116    36    37    2
   117    36    42   am
   118    54    55    1
   119    54    57    1
   120    54    53    1
   121    55    56    2
   122    22    23    1
   123    25    23   ar
   124    25    27   ar
   125   156   157    1
   126    44    53   am
   127    44    43    1
   128    42    43    1
   129    58    57    1
   130    58    60   ar
   131    20    28   am
   132    20    21    2
   133    28    29    1
   134    23    24   ar
   135   158   157   ar
   136   158   160   ar
   137   157   159   ar
   138    72    73    1
   139    27    26   ar
   140    30    29    1
   141    30    31    2
   142    43    46    1
   143    75    74    2
   144    74    73    1
   145    29    32    1
   146   160   162   ar
   147   159   161   ar
   148    24    26   ar
   149    73    76    1
   150    46    47    1
   151   162   161   ar
   152   162   163    1
   153    32    33    1
   154    78    77    2
   155    47    48    1
   156    76    77    1
   157    77    79   am
   158    48    49    1
   159    51    50    1
   160    49    50    2
   161    50    52    1
