@<TRIPOS>MOLECULE
tmp/2c2zB00.pdb
 93 94 0 0 0
SMALL
GASTEIGER

@<TRIPOS>ATOM
      1  N        -15.9590   31.7750   36.5640 N.3    21  VAL21      -0.1231
      2  CA       -14.6500   32.1540   37.0760 C.3    21  VAL21       0.1692
      3  C        -13.6160   31.0360   36.9760 C.2    21  VAL21       0.2593
      4  O        -13.9500   29.8690   36.7800 O.2    21  VAL21      -0.2718
      5  CB       -14.7310   32.5730   38.5750 C.3    21  VAL21       0.0266
      6  CG1      -15.7280   33.7180   38.7560 C.3    21  VAL21       0.0020
      7  CG2      -15.1350   31.3720   39.4400 C.3    21  VAL21       0.0020
      8  N        -12.3490   31.4170   37.0910 N.am   22  SER22      -0.1938
      9  CA       -11.2530   30.4560   37.1010 C.3    22  SER22       0.2055
     10  C        -10.5180   30.8330   38.3850 C.2    22  SER22       0.2643
     11  O        -10.4960   32.0060   38.7670 O.2    22  SER22      -0.2714
     12  CB       -10.3480   30.6110   35.8730 C.3    22  SER22       0.2130
     13  OG        -9.7080   31.8650   35.8520 O.3    22  SER22      -0.2179
     14  N         -9.9240   29.8520   39.0540 N.am   23  TYR23      -0.1959
     15  CA        -9.2550   30.1090   40.3210 C.3    23  TYR23       0.1771
     16  C         -7.7460   30.2810   40.3180 C.2    23  TYR23       0.2619
     17  O         -7.0310   29.6940   39.5090 O.2    23  TYR23      -0.2715
     18  CB        -9.6230   29.0060   41.3130 C.3    23  TYR23       0.0574
     19  CG       -11.0760   29.0340   41.7160 C.ar   23  TYR23      -0.0198
     20  CD1      -11.5410   29.9650   42.6420 C.ar   23  TYR23      -0.0009
     21  CD2      -11.9920   28.1480   41.1510 C.ar   23  TYR23      -0.0009
     22  CE1      -12.8870   30.0150   42.9970 C.ar   23  TYR23       0.0417
     23  CE2      -13.3380   28.1900   41.4970 C.ar   23  TYR23       0.0417
     24  CZ       -13.7770   29.1260   42.4210 C.ar   23  TYR23       0.1957
     25  OH       -15.1050   29.1770   42.7630 O.3    23  TYR23      -0.2866
     26  N         -7.2840   31.1010   41.2550 N.am   24  ARG24      -0.1963
     27  CA        -5.8670   31.3770   41.4390 C.3    24  ARG24       0.1729
     28  C         -5.5520   31.3540   42.9290 C.2    24  ARG24       0.2616
     29  O         -6.1580   32.0860   43.7140 O.2    24  ARG24      -0.2715
     30  CB        -5.5000   32.7480   40.8580 C.3    24  ARG24       0.0348
     31  CG        -4.0830   33.2330   41.2040 C.3    24  ARG24       0.0492
     32  CD        -3.6710   34.4200   40.3290 C.3    24  ARG24       0.2205
     33  NE        -4.7520   35.3980   40.2290 N.pl3  24  ARG24      -0.0865
     34  CZ        -5.1830   36.1560   41.2320 C.cat  24  ARG24       0.5346
     35  NH1       -4.6180   36.0770   42.4320 N.pl3  24  ARG24       0.1354
     36  NH2       -6.2150   36.9650   41.0440 N.pl3  24  ARG24       0.1354
     37  N         -4.6300   30.4800   43.3180 N.am   25  ASN25      -0.1959
     38  CA        -4.1980   30.3920   44.7040 C.3    25  ASN25       0.1804
     39  C         -2.9280   31.2420   44.7280 C.2    25  ASN25       0.2463
     40  O         -1.9320   30.8890   44.1050 O.2    25  ASN25      -0.2730
     41  CB        -3.8560   28.9460   45.0760 C.3    25  ASN25       0.1195
     42  CG        -3.3920   28.8140   46.5170 C.2    25  ASN25       0.2630
     43  OD1       -2.8030   29.7370   47.0760 O.2    25  ASN25      -0.2716
     44  ND2       -3.6400   27.6570   47.1170 N.am   25  ASN25      -0.0877
     45  N         -2.9520   32.3790   45.4410 N.am   26  PRO26      -0.2716
     46  CA        -1.7860   33.2640   45.5170 C.3    26  PRO26       0.1536
     47  C         -0.4710   32.6100   45.9370 C.2    26  PRO26       0.2598
     48  O          0.6000   33.1240   45.6240 O.2    26  PRO26      -0.2715
     49  CB        -2.2360   34.3420   46.5020 C.3    26  PRO26       0.0310
     50  CG        -3.7130   34.4180   46.2510 C.3    26  PRO26       0.0237
     51  CD        -4.0890   32.9520   46.1810 C.3    26  PRO26       0.0939
     52  N         -0.5460   31.4770   46.6290 N.am   27  ALA27      -0.1978
     53  CA         0.6700   30.8090   47.0840 C.3    27  ALA27       0.1597
     54  C          1.0530   29.5610   46.3050 C.2    27  ALA27       0.2287
     55  O          2.0570   28.9230   46.6270 O.2    27  ALA27      -0.2864
     56  CB         0.5540   30.4680   48.5630 C.3    27  ALA27       0.0319
     57  N         -2.4370   29.1540   39.5510 N.3    30  THR30      -0.1203
     58  CA        -3.8310   28.8730   39.1940 C.3    30  THR30       0.1994
     59  C         -4.1050   27.3830   39.0320 C.2    30  THR30       0.2617
     60  O         -3.2140   26.6140   38.6790 O.2    30  THR30      -0.2717
     61  CB        -4.2430   29.5890   37.8880 C.3    30  THR30       0.1784
     62  OG1       -3.4240   29.1300   36.8050 O.3    30  THR30      -0.2211
     63  CG2       -4.0920   31.1010   38.0350 C.3    30  THR30       0.0376
     64  N         -5.3470   26.9820   39.2940 N.am   31  TRP31      -0.1975
     65  CA        -5.7330   25.5810   39.1630 C.3    31  TRP31       0.1640
     66  C         -5.3780   25.0330   37.7840 C.2    31  TRP31       0.2290
     67  O         -4.7590   23.9760   37.6630 O.2    31  TRP31      -0.2864
     68  CB        -7.2450   25.4200   39.3650 C.3    31  TRP31       0.0576
     69  CG        -7.7210   25.5280   40.7810 C.ar   31  TRP31       0.0006
     70  CD1       -6.9810   25.8580   41.8810 C.ar   31  TRP31       0.0946
     71  CD2       -9.0590   25.3110   41.2460 C.ar   31  TRP31       0.0152
     72  NE1       -7.7770   25.8600   43.0030 N.ar   31  TRP31      -0.2442
     73  CE2       -9.0580   25.5280   42.6410 C.ar   31  TRP31       0.0810
     74  CE3      -10.2610   24.9540   40.6160 C.ar   31  TRP31       0.0012
     75  CZ2      -10.2130   25.4010   43.4220 C.ar   31  TRP31       0.0191
     76  CZ3      -11.4120   24.8280   41.3910 C.ar   31  TRP31       0.0001
     77  CH2      -11.3770   25.0520   42.7830 C.ar   31  TRP31       0.0015
     78  N        -12.0620   22.0560   44.3970 N.3    65  ASP65      -0.1225
     79  CA       -13.2130   22.8470   44.7860 C.3    65  ASP65       0.1805
     80  C        -12.8880   24.0270   45.6760 C.2    65  ASP65       0.2597
     81  O        -11.8670   24.0580   46.3690 O.2    65  ASP65      -0.2718
     82  CB       -14.2660   21.9590   45.4520 C.3    65  ASP65       0.1424
     83  CG       -13.6980   21.1240   46.5680 C.2    65  ASP65       0.3668
     84  OD1      -13.2280   21.7110   47.5630 O.co2  65  ASP65      -0.2456
     85  OD2      -13.7190   19.8800   46.4470 O.co2  65  ASP65      -0.2456
     86  N        -13.7730   25.0120   45.6190 N.am   66  ASP66      -0.1974
     87  CA       -13.6590   26.2260   46.4040 C.3    66  ASP66       0.1709
     88  C        -14.7270   26.1610   47.4930 C.2    66  ASP66       0.2293
     89  O        -15.8840   26.5210   47.2690 O.2    66  ASP66      -0.2864
     90  CB       -13.8580   27.4360   45.4840 C.3    66  ASP66       0.1436
     91  CG       -14.2340   28.6980   46.2320 C.2    66  ASP66       0.3671
     92  OD1      -13.8660   28.8330   47.4170 O.co2  66  ASP66      -0.2456
     93  OD2      -14.8890   29.5680   45.6150 O.co2  66  ASP66      -0.2456
@<TRIPOS>BOND
     1    13    12    1
     2    12     9    1
     3     1     2    1
     4     4     3    2
     5    62    61    1
     6     3     2    1
     7     3     8   am
     8     2     5    1
     9     8     9    1
    10     9    10    1
    11    67    66    2
    12    66    65    1
    13    61    63    1
    14    61    58    1
    15    10    11    2
    16    10    14   am
    17     5     6    1
    18     5     7    1
    19    60    59    2
    20    59    58    1
    21    59    64   am
    22    14    15    1
    23    65    64    1
    24    65    68    1
    25    58    57    1
    26    68    69    1
    27    17    16    2
    28    33    32    1
    29    33    34    2
    30    16    15    1
    31    16    26   am
    32    15    18    1
    33    32    31    1
    34    74    71   ar
    35    74    76   ar
    36    69    71   ar
    37    69    70   ar
    38    30    31    1
    39    30    27    1
    40    36    34    1
    41    21    23   ar
    42    21    19   ar
    43    34    35    1
    44    71    73   ar
    45    26    27    1
    46    18    19    1
    47    76    77   ar
    48    27    28    1
    49    23    24   ar
    50    19    20   ar
    51    70    72   ar
    52    24    25    1
    53    24    22   ar
    54    73    72   ar
    55    73    75   ar
    56    20    22   ar
    57    77    75   ar
    58    28    37   am
    59    28    29    2
    60    37    38    1
    61    40    39    2
    62    78    79    1
    63    38    39    1
    64    38    41    1
    65    39    45   am
    66    79    82    1
    67    79    80    1
    68    41    42    1
    69    45    46    1
    70    45    51    1
    71    82    83    1
    72    90    91    1
    73    90    87    1
    74    46    47    1
    75    46    49    1
    76    93    91   ar
    77    86    80   am
    78    86    87    1
    79    48    47    2
    80    80    81    2
    81    47    52   am
    82    51    50    1
    83    91    92   ar
    84    50    49    1
    85    54    55    2
    86    54    53    1
    87    87    88    1
    88    85    83   ar
    89    42    43    2
    90    42    44   am
    91    83    84   ar
    92    52    53    1
    93    53    56    1
    94    89    88    2
