@<TRIPOS>MOLECULE
tmp/2c37V01.pdb
 132 123 0 0 0
SMALL
GASTEIGER

@<TRIPOS>ATOM
      1  N        -39.6920  -97.3650  -77.1470 N.3    79  MET79      -0.1245
      2  CA       -39.3450  -98.7770  -77.1920 C.3    79  MET79       0.1570
      3  C        -37.9880  -99.0050  -76.5420 C.2    79  MET79       0.2261
      4  O        -37.0100  -98.3300  -76.8540 O.2    79  MET79      -0.2867
      5  CB       -39.3100  -99.2630  -78.6340 C.3    79  MET79       0.0387
      6  CG       -40.5950  -99.0580  -79.3740 C.3    79  MET79       0.0595
      7  SD       -40.7590 -100.2480  -80.7000 S.3    79  MET79      -0.1393
      8  CE       -39.6350  -99.6140  -81.9510 C.3    79  MET79       0.0692
      9  N        -37.0520 -105.7360  -79.3450 N.3    84  THR84      -0.1203
     10  CA       -37.0920 -106.3700  -80.6660 C.3    84  THR84       0.1994
     11  C        -35.9570 -107.3730  -80.8340 C.2    84  THR84       0.2618
     12  O        -35.1980 -107.6190  -79.8970 O.2    84  THR84      -0.2717
     13  CB       -37.0340 -105.3310  -81.8090 C.3    84  THR84       0.1784
     14  OG1      -35.9550 -104.4180  -81.5730 O.3    84  THR84      -0.2211
     15  CG2      -38.3520 -104.5540  -81.9200 C.3    84  THR84       0.0376
     16  N        -35.8480 -107.9530  -82.0260 N.am   85  ASP85      -0.1959
     17  CA       -34.8400 -108.9710  -82.2790 C.3    85  ASP85       0.1840
     18  C        -33.4650 -108.3600  -82.4250 C.2    85  ASP85       0.2621
     19  O        -32.5260 -108.7820  -81.7450 O.2    85  ASP85      -0.2715
     20  CB       -35.2100 -109.8050  -83.5000 C.3    85  ASP85       0.1450
     21  CG       -36.4210 -110.6810  -83.2480 C.2    85  ASP85       0.3671
     22  OD1      -36.3210 -111.6250  -82.4220 O.co2  85  ASP85      -0.2456
     23  OD2      -37.4780 -110.4070  -83.8660 O.co2  85  ASP85      -0.2456
     24  N        -33.3380 -107.3760  -83.3140 N.am   86  GLU86      -0.1977
     25  CA       -32.1130 -106.5780  -83.3370 C.3    86  GLU86       0.1602
     26  C        -32.3350 -105.3570  -82.4610 C.2    86  GLU86       0.2287
     27  O        -33.4480 -104.8190  -82.4060 O.2    86  GLU86      -0.2864
     28  CB       -31.6370 -106.2120  -84.7610 C.3    86  GLU86       0.0415
     29  CG       -30.8810 -107.3520  -85.5490 C.3    86  GLU86       0.1163
     30  CD       -29.5880 -107.9320  -84.8650 C.2    86  GLU86       0.3649
     31  OE1      -28.9460 -107.2530  -84.0180 O.co2  86  GLU86      -0.2457
     32  OE2      -29.2140 -109.0860  -85.1990 O.co2  86  GLU86      -0.2457
     33  N        -32.8280 -101.9840  -80.8760 N.3    88  LYS88      -0.1245
     34  CA       -33.2660 -100.6500  -81.2560 C.3    88  LYS88       0.1561
     35  C        -32.4380  -99.5890  -80.5320 C.2    88  LYS88       0.2260
     36  O        -32.1090  -99.7290  -79.3600 O.2    88  LYS88      -0.2867
     37  CB       -34.7680 -100.4660  -80.9650 C.3    88  LYS88       0.0271
     38  CG       -35.3140  -99.1960  -81.5350 C.3    88  LYS88       0.0035
     39  CD       -35.4280  -99.1770  -83.0440 C.3    88  LYS88       0.0206
     40  CE       -36.1800  -97.9240  -83.4860 C.3    88  LYS88       0.1093
     41  NZ       -35.9250  -97.5320  -84.8920 N.3    88  LYS88      -0.1314
     42  N        -40.3640  -92.6550  -86.2720 N.3    95  ARG95      -0.1245
     43  CA       -41.5350  -93.4640  -85.9120 C.3    95  ARG95       0.1563
     44  C        -42.0260  -93.1780  -84.4960 C.2    95  ARG95       0.2260
     45  O        -43.2200  -92.9810  -84.2770 O.2    95  ARG95      -0.2867
     46  CB       -41.2390  -94.9660  -86.0570 C.3    95  ARG95       0.0307
     47  CG       -42.4730  -95.8350  -86.2760 C.3    95  ARG95       0.0489
     48  CD       -42.0980  -97.2940  -86.3260 C.3    95  ARG95       0.2205
     49  NE       -42.0110  -97.8450  -84.9850 N.pl3  95  ARG95      -0.0865
     50  CZ       -42.9090  -98.6620  -84.4350 C.cat  95  ARG95       0.5346
     51  NH1      -43.9800  -99.0720  -85.1140 N.pl3  95  ARG95       0.1354
     52  NH2      -42.7290  -99.0720  -83.1880 N.pl3  95  ARG95       0.1354
     53  N        -41.7950 -106.0050  -78.5020 N.3   130  ALA130     -0.1231
     54  CA       -42.5650 -105.6220  -79.6660 C.3   130  ALA130      0.1694
     55  C        -42.8820 -106.8690  -80.4790 C.2   130  ALA130      0.2592
     56  O        -41.9850 -107.6430  -80.7990 O.2   130  ALA130     -0.2718
     57  CB       -41.7990 -104.6160  -80.4820 C.3   130  ALA130      0.0304
     58  N        -44.1660 -107.0820  -80.7670 N.am  131  ASP131     -0.1960
     59  CA       -44.6100 -108.1370  -81.6750 C.3   131  ASP131      0.1840
     60  C        -45.7780 -107.6320  -82.5060 C.2   131  ASP131      0.2622
     61  O        -46.7800 -108.3290  -82.6790 O.2   131  ASP131     -0.2715
     62  CB       -45.0180 -109.3820  -80.8920 C.3   131  ASP131      0.1450
     63  CG       -45.2100 -110.6180  -81.7860 C.2   131  ASP131      0.3671
     64  OD1      -44.6190 -110.6740  -82.8980 O.co2 131  ASP131     -0.2456
     65  OD2      -45.9470 -111.5400  -81.3570 O.co2 131  ASP131     -0.2456
     66  N        -45.6370 -106.4080  -83.0150 N.am  132  ALA132     -0.1963
     67  CA       -46.6990 -105.7060  -83.7400 C.3   132  ALA132      0.1728
     68  C        -47.8540 -105.2290  -82.8430 C.2   132  ALA132      0.2617
     69  O        -48.1740 -105.8430  -81.8260 O.2   132  ALA132     -0.2715
     70  CB       -47.2060 -106.5500  -84.8950 C.3   132  ALA132      0.0334
     71  N        -48.4590 -104.1130  -83.2230 N.am  133  GLY133     -0.1940
     72  CA       -49.6150 -103.5860  -82.5000 C.3   133  GLY133      0.2014
     73  C        -49.2200 -102.8510  -81.2280 C.2   133  GLY133      0.2640
     74  O        -50.0790 -102.5090  -80.3930 O.2   133  GLY133     -0.2714
     75  N        -47.9210 -102.5930  -81.0970 N.am  134  SER134     -0.1935
     76  CA       -47.3840 -101.9450  -79.9110 C.3   134  SER134      0.2055
     77  C        -47.9680 -100.5610  -79.6780 C.2   134  SER134      0.2642
     78  O        -48.2040 -100.1690  -78.5330 O.2   134  SER134     -0.2714
     79  CB       -45.8600 -101.8750  -79.9650 C.3   134  SER134      0.2130
     80  OG       -45.4120 -101.4850  -81.2470 O.3   134  SER134     -0.2179
     81  N        -48.2200  -99.8220  -80.7530 N.am  135  ARG135     -0.1977
     82  CA       -48.8040  -98.4950  -80.6160 C.3   135  ARG135      0.1597
     83  C        -50.1590  -98.5880  -79.9340 C.2   135  ARG135      0.2287
     84  O        -50.5240  -97.7130  -79.1520 O.2   135  ARG135     -0.2864
     85  CB       -48.9030  -97.7760  -81.9640 C.3   135  ARG135      0.0334
     86  CG       -50.1450  -98.0760  -82.7830 C.3   135  ARG135      0.0492
     87  CD       -50.0160  -97.5010  -84.1830 C.3   135  ARG135      0.2205
     88  NE       -48.8130  -98.0000  -84.8370 N.pl3 135  ARG135     -0.0865
     89  CZ       -48.3750  -97.6060  -86.0220 C.cat 135  ARG135      0.5346
     90  NH1      -49.0440  -96.6960  -86.6970 N.pl3 135  ARG135      0.1354
     91  NH2      -47.2600  -98.1330  -86.5190 N.pl3 135  ARG135      0.1354
     92  N        -45.9220 -109.8400  -85.8560 N.3   175  GLU175     -0.1245
     93  CA       -44.8980 -109.1270  -86.5990 C.3   175  GLU175      0.1567
     94  C        -44.8260 -109.7220  -88.0070 C.2   175  GLU175      0.2260
     95  O        -44.7870 -108.9800  -88.9880 O.2   175  GLU175     -0.2867
     96  CB       -43.5380 -109.1590  -85.9150 C.3   175  GLU175      0.0388
     97  CG       -42.5460 -108.1920  -86.5530 C.3   175  GLU175      0.1160
     98  CD       -41.0970 -108.4130  -86.0990 C.2   175  GLU175      0.3649
     99  OE1      -40.5670 -109.5560  -86.2010 O.co2 175  GLU175     -0.2457
    100  OE2      -40.4730 -107.4210  -85.6490 O.co2 175  GLU175     -0.2457
    101  N        -47.5320 -108.3030  -90.0340 N.3   178  ASP178     -0.1225
    102  CA       -47.2500 -106.8830  -90.2400 C.3   178  ASP178      0.1805
    103  C        -46.2380 -106.7120  -91.3600 C.2   178  ASP178      0.2597
    104  O        -46.4420 -105.9370  -92.3000 O.2   178  ASP178     -0.2718
    105  CB       -46.7000 -106.2720  -88.9450 C.3   178  ASP178      0.1424
    106  CG       -46.6460 -104.7410  -88.9720 C.2   178  ASP178      0.3668
    107  OD1      -46.5140 -104.1240  -90.0590 O.co2 178  ASP178     -0.2456
    108  OD2      -46.7270 -104.1390  -87.8770 O.co2 178  ASP178     -0.2456
    109  N        -45.1640 -107.4750  -91.2520 N.am  179  MET179     -0.1979
    110  CA       -44.0310 -107.3870  -92.1500 C.3   179  MET179      0.1605
    111  C        -44.3560 -107.7430  -93.5880 C.2   179  MET179      0.2287
    112  O        -43.8580 -107.1030  -94.5100 O.2   179  MET179     -0.2864
    113  CB       -42.9400 -108.3220  -91.6500 C.3   179  MET179      0.0413
    114  CG       -41.5610 -107.9800  -92.1540 C.3   179  MET179      0.0598
    115  SD       -40.3240 -108.5170  -90.9570 S.3   179  MET179     -0.1393
    116  CE       -40.6470 -107.3340  -89.6080 C.3   179  MET179      0.0692
    117  N        -52.1480 -103.0560  -92.9110 N.3   184  ASP184     -0.1239
    118  CA       -52.0410 -102.9900  -91.4670 C.3   184  ASP184      0.1674
    119  C        -52.8140 -101.7430  -91.0400 C.2   184  ASP184      0.2266
    120  O        -52.4410 -100.6110  -91.3760 O.2   184  ASP184     -0.2867
    121  CB       -50.5700 -102.8940  -91.0500 C.3   184  ASP184      0.1410
    122  CG       -50.3670 -102.9120  -89.5210 C.2   184  ASP184      0.3668
    123  OD1      -51.2440 -103.4000  -88.7630 O.co2 184  ASP184     -0.2456
    124  OD2      -49.3060 -102.4270  -89.0680 O.co2 184  ASP184     -0.2456
    125  N        -51.5470  -98.4130  -93.0950 N.3   202  ASN202     -0.1240
    126  CA       -50.4490  -98.5320  -94.0370 C.3   202  ASN202      0.1653
    127  C        -50.6180  -99.7970  -94.8800 C.2   202  ASN202      0.2266
    128  O        -50.9960 -100.8580  -94.3810 O.2   202  ASN202     -0.2867
    129  CB       -49.0820  -98.4900  -93.3510 C.3   202  ASN202      0.1155
    130  CG       -48.9080  -99.5890  -92.3310 C.2   202  ASN202      0.2627
    131  OD1      -48.3490 -100.6360  -92.6410 O.2   202  ASN202     -0.2716
    132  ND2      -49.3940  -99.3620  -91.1070 N.am  202  ASN202     -0.0877
@<TRIPOS>BOND
     1   127   128    2
     2   127   126    1
     3   112   111    2
     4   126   129    1
     5   126   125    1
     6   111   110    1
     7   129   130    1
     8   117   118    1
     9   131   130    2
    10   130   132   am
    11   104   103    2
    12   114   113    1
    13   114   115    1
    14   110   113    1
    15   110   109    1
    16   118   121    1
    17   118   119    1
    18   120   119    2
    19   103   109   am
    20   103   102    1
    21   121   122    1
    22   115   116    1
    23   102   101    1
    24   102   105    1
    25   107   106   ar
    26   122   124   ar
    27   122   123   ar
    28    95    94    2
    29   106   105    1
    30   106   108   ar
    31    94    93    1
    32    90    89    1
    33    93    96    1
    34    93    92    1
    35    97    98    1
    36    97    96    1
    37    91    89    1
    38    48    47    1
    39    48    49    1
    40    47    46    1
    41    42    43    1
    42    99    98   ar
    43    98   100   ar
    44    46    43    1
    45    89    88    2
    46    43    44    1
    47    29    30    1
    48    29    28    1
    49    32    30   ar
    50    51    50    1
    51    49    50    2
    52    70    67    1
    53    41    40    1
    54    30    31   ar
    55    88    87    1
    56    28    25    1
    57    44    45    2
    58    50    52    1
    59    87    86    1
    60    23    21   ar
    61    67    66    1
    62    67    68    1
    63    20    21    1
    64    20    17    1
    65    40    39    1
    66    25    24    1
    67    25    26    1
    68    24    18   am
    69    21    22   ar
    70    71    68   am
    71    71    72    1
    72    39    38    1
    73    66    60   am
    74    64    63   ar
    75    68    69    2
    76    86    85    1
    77    61    60    2
    78    60    59    1
    79    72    73    1
    80    26    27    2
    81    18    17    1
    82    18    19    2
    83    17    16    1
    84    16    11   am
    85    85    82    1
    86     8     7    1
    87    15    13    1
    88    13    14    1
    89    13    10    1
    90    63    65   ar
    91    63    62    1
    92    59    62    1
    93    59    58    1
    94    38    37    1
    95    34    37    1
    96    34    33    1
    97    34    35    1
    98    80    79    1
    99    73    75   am
   100    73    74    2
   101    75    76    1
   102    11    10    1
   103    11    12    2
   104    56    55    2
   105    58    55   am
   106    81    82    1
   107    81    77   am
   108     7     6    1
   109    10     9    1
   110    82    83    1
   111    35    36    2
   112    57    54    1
   113    55    54    1
   114    79    76    1
   115    83    84    2
   116    76    77    1
   117    77    78    2
   118    54    53    1
   119     6     5    1
   120     5     2    1
   121     2     1    1
   122     2     3    1
   123     4     3    2
