@<TRIPOS>MOLECULE
tmp/2c37F01.pdb
 95 84 0 0 0
SMALL
GASTEIGER

@<TRIPOS>ATOM
      1  N         -8.5360  -33.1110  -40.0100 N.3    76  MET76      -0.1245
      2  CA        -7.1420  -33.1350  -39.5930 C.3    76  MET76       0.1570
      3  C         -6.9950  -33.8140  -38.2420 C.2    76  MET76       0.2261
      4  O         -7.6590  -33.4550  -37.2700 O.2    76  MET76      -0.2867
      5  CB        -6.6010  -31.7140  -39.5190 C.3    76  MET76       0.0387
      6  CG        -6.7700  -30.9590  -40.8430 C.3    76  MET76       0.0595
      7  SD        -5.5340  -29.6860  -41.0990 S.3    76  MET76      -0.1393
      8  CE        -6.1170  -28.4310  -39.9320 C.3    76  MET76       0.0692
      9  N         -0.2290  -31.2510  -37.0490 N.3    81  THR81      -0.1218
     10  CA         0.4750  -29.9620  -37.0610 C.3    81  THR81       0.1862
     11  C          1.4400  -29.8520  -35.8970 C.2    81  THR81       0.2287
     12  O          1.6130  -30.8050  -35.1340 O.2    81  THR81      -0.2866
     13  CB        -0.4950  -28.7620  -37.0180 C.3    81  THR81       0.1770
     14  OG1       -1.4530  -28.9570  -35.9710 O.3    81  THR81      -0.2211
     15  CG2       -1.2330  -28.5960  -38.3570 C.3    81  THR81       0.0375
     16  N          1.4090  -27.3510  -33.2970 N.3    83  GLU83      -0.1245
     17  CA         0.4910  -27.2070  -32.1750 C.3    83  GLU83       0.1567
     18  C         -0.6600  -28.1940  -32.3660 C.2    83  GLU83       0.2260
     19  O         -1.1080  -28.4090  -33.4890 O.2    83  GLU83      -0.2867
     20  CB        -0.0260  -25.7810  -32.0850 C.3    83  GLU83       0.0388
     21  CG        -0.8100  -25.1190  -33.1540 C.3    83  GLU83       0.1160
     22  CD        -0.2600  -24.7980  -34.4940 C.2    83  GLU83       0.3649
     23  OE1        0.9610  -24.9760  -34.6570 O.co2  83  GLU83      -0.2457
     24  OE2       -0.9710  -24.3370  -35.3830 O.co2  83  GLU83      -0.2457
     25  N        -12.8640  -23.7970  -40.8760 N.3    92  ARG92      -0.1245
     26  CA       -12.0050  -24.1900  -41.9970 C.3    92  ARG92       0.1563
     27  C        -12.3170  -25.5980  -42.4900 C.2    92  ARG92       0.2260
     28  O        -12.4890  -25.7990  -43.6970 O.2    92  ARG92      -0.2867
     29  CB       -10.5210  -24.1040  -41.6220 C.3    92  ARG92       0.0307
     30  CG        -9.5810  -23.9010  -42.8130 C.3    92  ARG92       0.0489
     31  CD        -8.1250  -23.9070  -42.4010 C.3    92  ARG92       0.2205
     32  NE        -7.6520  -25.2790  -42.3060 N.pl3  92  ARG92      -0.0865
     33  CZ        -6.8730  -25.8940  -43.2080 C.cat  92  ARG92       0.5346
     34  NH1       -6.4400  -25.2480  -44.2900 N.pl3  92  ARG92       0.1354
     35  NH2       -6.5010  -27.1630  -43.0260 N.pl3  92  ARG92       0.1354
     36  N          0.1400  -32.1490  -41.7550 N.3   127  ALA127     -0.1245
     37  CA        -0.1250  -30.9630  -42.5470 C.3   127  ALA127      0.1562
     38  C          1.1790  -30.2070  -42.8190 C.2   127  ALA127      0.2260
     39  O          1.9180  -29.8640  -41.8900 O.2   127  ALA127     -0.2867
     40  CB        -1.1220  -30.0740  -41.8290 C.3   127  ALA127      0.0290
     41  N          0.8940  -27.6670  -45.5880 N.3   129  ALA129     -0.1245
     42  CA         0.2840  -26.9010  -46.6730 C.3   129  ALA129      0.1562
     43  C         -0.1650  -27.7670  -47.8570 C.2   129  ALA129      0.2260
     44  O          0.4220  -28.7970  -48.1540 O.2   129  ALA129     -0.2867
     45  CB         1.2010  -25.7650  -47.1350 C.3   129  ALA129      0.0290
     46  N         -2.8040  -29.4230  -48.0170 N.3   131  SER131     -0.1202
     47  CA        -3.5570  -30.5630  -47.4810 C.3   131  SER131      0.2020
     48  C         -4.9450  -30.7190  -48.1060 C.2   131  SER131      0.2618
     49  O         -5.3720  -31.8610  -48.3450 O.2   131  SER131     -0.2717
     50  CB        -3.6610  -30.4800  -45.9530 C.3   131  SER131      0.2103
     51  OG        -4.0030  -29.1690  -45.5570 O.3   131  SER131     -0.2182
     52  N         -5.6330  -29.6060  -48.3800 N.am  132  ARG132     -0.1979
     53  CA        -6.9460  -29.6770  -49.0410 C.3   132  ARG132      0.1597
     54  C         -6.8700  -30.3800  -50.4040 C.2   132  ARG132      0.2287
     55  O         -7.7740  -31.1420  -50.7640 O.2   132  ARG132     -0.2864
     56  CB        -7.6060  -28.3070  -49.1640 C.3   132  ARG132      0.0334
     57  CG        -7.1900  -27.5130  -50.3790 C.3   132  ARG132      0.0492
     58  CD        -7.6700  -26.0780  -50.2930 C.3   132  ARG132      0.2205
     59  NE        -7.1970  -25.4390  -49.0720 N.pl3 132  ARG132     -0.0865
     60  CZ        -7.5680  -24.2270  -48.6580 C.cat 132  ARG132      0.5346
     61  NH1       -8.4170  -23.4970  -49.3660 N.pl3 132  ARG132      0.1354
     62  NH2       -7.1000  -23.7440  -47.5160 N.pl3 132  ARG132      0.1354
     63  N          4.4130  -24.8790  -45.7180 N.3   172  GLU172     -0.1245
     64  CA         3.7070  -24.1000  -44.6940 C.3   172  GLU172      0.1567
     65  C          4.4020  -22.7500  -44.5340 C.2   172  GLU172      0.2260
     66  O          3.7340  -21.7300  -44.3370 O.2   172  GLU172     -0.2867
     67  CB         3.6580  -24.8320  -43.3720 C.3   172  GLU172      0.0388
     68  CG         3.0730  -24.0750  -42.2090 C.3   172  GLU172      0.1160
     69  CD         1.6050  -23.7260  -42.3390 C.2   172  GLU172      0.3649
     70  OE1        0.8620  -24.4070  -43.0680 O.co2 172  GLU172     -0.2457
     71  OE2        1.1610  -22.7440  -41.6970 O.co2 172  GLU172     -0.2457
     72  N          3.2150  -20.6810  -47.4100 N.3   175  ASP175     -0.1239
     73  CA         1.7920  -20.4230  -47.1630 C.3   175  ASP175      0.1674
     74  C          1.5950  -19.3170  -46.1310 C.2   175  ASP175      0.2266
     75  O          0.8790  -18.3350  -46.3640 O.2   175  ASP175     -0.2867
     76  CB         1.1080  -21.6980  -46.6710 C.3   175  ASP175      0.1410
     77  CG        -0.4250  -21.5960  -46.6600 C.2   175  ASP175      0.3668
     78  OD1       -0.9700  -20.4750  -46.5670 O.co2 175  ASP175     -0.2456
     79  OD2       -1.0950  -22.6580  -46.7340 O.co2 175  ASP175     -0.2456
     80  N         -1.7650  -17.5930  -52.2150 N.3   181  ASP181     -0.1239
     81  CA        -1.8900  -19.0290  -52.1050 C.3   181  ASP181      0.1674
     82  C         -3.1170  -19.3920  -52.9380 C.2   181  ASP181      0.2266
     83  O         -4.2570  -19.0180  -52.6090 O.2   181  ASP181     -0.2867
     84  CB        -2.0780  -19.4460  -50.6390 C.3   181  ASP181      0.1410
     85  CG        -2.0820  -20.9720  -50.4380 C.2   181  ASP181      0.3668
     86  OD1       -1.4710  -21.7130  -51.2550 O.co2 181  ASP181     -0.2456
     87  OD2       -2.6910  -21.4320  -49.4400 O.co2 181  ASP181     -0.2456
     88  N         -6.3870  -17.2270  -51.7700 N.3   199  ASN199     -0.1240
     89  CA        -6.2690  -16.2990  -50.6480 C.3   199  ASN199      0.1653
     90  C         -4.9540  -15.5380  -50.7450 C.2   199  ASN199      0.2266
     91  O         -3.8940  -16.1050  -51.0350 O.2   199  ASN199     -0.2867
     92  CB        -6.4180  -16.9840  -49.2880 C.3   199  ASN199      0.1155
     93  CG        -5.3940  -18.0450  -49.0630 C.2   199  ASN199      0.2627
     94  OD1       -4.3570  -17.7800  -48.4630 O.2   199  ASN199     -0.2716
     95  ND2       -5.6600  -19.2610  -49.5560 N.am  199  ASN199     -0.0877
@<TRIPOS>BOND
     1    82    83    2
     2    82    81    1
     3    80    81    1
     4    81    84    1
     5    88    89    1
     6    86    85   ar
     7    91    90    2
     8    55    54    2
     9    90    89    1
    10    89    92    1
    11    84    85    1
    12    85    87   ar
    13    54    53    1
    14    57    58    1
    15    57    56    1
    16    58    59    1
    17    95    93   am
    18    61    60    1
    19    92    93    1
    20    56    53    1
    21    59    60    2
    22    93    94    2
    23    53    52    1
    24    60    62    1
    25    52    48   am
    26    49    48    2
    27    44    43    2
    28    48    47    1
    29    46    47    1
    30    43    42    1
    31    47    50    1
    32    72    73    1
    33    73    76    1
    34    73    74    1
    35    45    42    1
    36    79    77   ar
    37    42    41    1
    38    76    77    1
    39    77    78   ar
    40    75    74    2
    41    50    51    1
    42    63    64    1
    43    64    65    1
    44    64    67    1
    45    65    66    2
    46    34    33    1
    47    28    27    2
    48    67    68    1
    49    33    35    1
    50    33    32    2
    51    70    69   ar
    52    38    37    1
    53    38    39    2
    54    30    31    1
    55    30    29    1
    56    37    40    1
    57    37    36    1
    58    27    26    1
    59    31    32    1
    60    69    68    1
    61    69    71   ar
    62    26    29    1
    63    26    25    1
    64     7     6    1
    65     7     8    1
    66     6     5    1
    67     1     2    1
    68     2     5    1
    69     2     3    1
    70    15    13    1
    71     3     4    2
    72    10     9    1
    73    10    13    1
    74    10    11    1
    75    13    14    1
    76    11    12    2
    77    24    22   ar
    78    23    22   ar
    79    22    21    1
    80    19    18    2
    81    16    17    1
    82    21    20    1
    83    18    17    1
    84    17    20    1
