@<TRIPOS>MOLECULE
tmp/2c38I00.pdb
 96 91 0 0 0
SMALL
GASTEIGER

@<TRIPOS>ATOM
      1  N        -97.0810  -95.9470  -25.9980 N.3    75  TYR75      -0.1241
      2  CA       -97.4750  -94.5250  -26.0050 C.3    75  TYR75       0.1605
      3  C        -98.9530  -94.3920  -25.6580 C.2    75  TYR75       0.2264
      4  O        -99.7830  -95.1080  -26.2350 O.2    75  TYR75      -0.2867
      5  CB       -97.2200  -93.8720  -27.3680 C.3    75  TYR75       0.0534
      6  CG       -95.7670  -93.8300  -27.7830 C.ar   75  TYR75      -0.0201
      7  CD1      -94.9240  -92.7960  -27.3570 C.ar   75  TYR75      -0.0009
      8  CD2      -95.2330  -94.8170  -28.6140 C.ar   75  TYR75      -0.0009
      9  CE1      -93.5790  -92.7580  -27.7430 C.ar   75  TYR75       0.0417
     10  CE2      -93.8930  -94.7870  -29.0020 C.ar   75  TYR75       0.0417
     11  CZ       -93.0770  -93.7610  -28.5630 C.ar   75  TYR75       0.1957
     12  OH       -91.7630  -93.7430  -28.9510 O.3    75  TYR75      -0.2866
     13  N       -101.1290  -92.6290  -26.5680 N.3    77  ASP77      -0.1225
     14  CA      -101.8690  -92.5140  -27.8280 C.3    77  ASP77       0.1805
     15  C       -102.2330  -93.8780  -28.4250 C.2    77  ASP77       0.2598
     16  O       -103.3780  -94.0970  -28.8020 O.2    77  ASP77      -0.2718
     17  CB      -101.0790  -91.6710  -28.8440 C.3    77  ASP77       0.1424
     18  CG      -101.2530  -90.1970  -28.7240 C.2    77  ASP77       0.3668
     19  OD1     -102.0490  -89.7260  -27.9390 O.co2  77  ASP77      -0.2456
     20  OD2     -100.5440  -89.4920  -29.5510 O.co2  77  ASP77      -0.2456
     21  N       -101.2590  -94.7870  -28.4950 N.am   78  THR78      -0.1953
     22  CA      -101.4180  -96.0960  -29.1550 C.3    78  THR78       0.1897
     23  C       -101.1870  -97.2710  -28.1790 C.2    78  THR78       0.2313
     24  O       -100.1120  -97.8820  -28.1840 O.2    78  THR78      -0.2863
     25  CB      -100.4630  -96.2250  -30.3840 C.3    78  THR78       0.1794
     26  OG1      -99.0990  -96.0890  -29.9540 O.3    78  THR78      -0.2208
     27  CG2     -100.7700  -95.1510  -31.4410 C.3    78  THR78       0.0378
     28  N        -93.5290 -100.4210  -30.2250 N.3    83  ASN83      -0.1225
     29  CA       -93.0160  -99.2130  -30.8370 C.3    83  ASN83       0.1785
     30  C        -91.8670  -99.5190  -31.7820 C.2    83  ASN83       0.2597
     31  O        -91.0950 -100.4530  -31.5490 O.2    83  ASN83      -0.2718
     32  CB       -92.6060  -98.2230  -29.7490 C.3    83  ASN83       0.1169
     33  CG       -93.6470  -98.1200  -28.6460 C.2    83  ASN83       0.2627
     34  OD1      -94.8400  -98.0080  -28.9150 O.2    83  ASN83      -0.2716
     35  ND2      -93.2040  -98.1710  -27.4030 N.am   83  ASN83      -0.0877
     36  N        -91.7920  -98.7480  -32.8650 N.am   84  LEU84      -0.1966
     37  CA       -90.6750  -98.8160  -33.8060 C.3    84  LEU84       0.1728
     38  C        -89.9930  -97.4670  -33.8700 C.2    84  LEU84       0.2616
     39  O        -90.6390  -96.4550  -34.1210 O.2    84  LEU84      -0.2715
     40  CB       -91.1500  -99.2050  -35.2080 C.3    84  LEU84       0.0311
     41  CG       -90.0850  -99.2000  -36.3090 C.3    84  LEU84       0.0022
     42  CD1      -89.2050 -100.4260  -36.1950 C.3    84  LEU84       0.0001
     43  CD2      -90.7100  -99.1180  -37.6880 C.3    84  LEU84       0.0001
     44  N        -88.6910  -97.4460  -33.6440 N.am   85  ILE85      -0.1963
     45  CA       -87.9650  -96.2060  -33.7420 C.3    85  ILE85       0.1727
     46  C        -86.8030  -96.4420  -34.6750 C.2    85  ILE85       0.2616
     47  O        -85.9500  -97.2850  -34.3860 O.2    85  ILE85      -0.2715
     48  CB       -87.4840  -95.7310  -32.3680 C.3    85  ILE85       0.0290
     49  CG1      -88.6810  -95.4780  -31.4540 C.3    85  ILE85       0.0022
     50  CG2      -86.6480  -94.4720  -32.5060 C.3    85  ILE85       0.0023
     51  CD1      -88.4170  -94.4680  -30.3680 C.3    85  ILE85       0.0001
     52  N        -86.7770  -95.7030  -35.7870 N.am   86  VAL86      -0.1963
     53  CA       -85.7620  -95.8780  -36.8370 C.3    86  VAL86       0.1727
     54  C        -84.7670  -94.7120  -36.9430 C.2    86  VAL86       0.2616
     55  O        -85.0990  -93.6530  -37.4740 O.2    86  VAL86      -0.2715
     56  CB       -86.4310  -96.0960  -38.1980 C.3    86  VAL86       0.0290
     57  CG1      -85.3920  -96.2010  -39.3040 C.3    86  VAL86       0.0023
     58  CG2      -87.2710  -97.3340  -38.1560 C.3    86  VAL86       0.0023
     59  N        -83.5480  -94.9170  -36.4480 N.am   87  ASN87      -0.1972
     60  CA       -82.4990  -93.8830  -36.4830 C.3    87  ASN87       0.1688
     61  C        -81.4460  -94.1210  -37.5530 C.2    87  ASN87       0.2292
     62  O        -80.7020  -95.1120  -37.5100 O.2    87  ASN87      -0.2864
     63  CB       -81.7940  -93.7780  -35.1370 C.3    87  ASN87       0.1181
     64  CG       -82.4190  -92.7680  -34.2390 C.2    87  ASN87       0.2629
     65  OD1      -83.6010  -92.8600  -33.9020 O.2    87  ASN87      -0.2716
     66  ND2      -81.6240  -91.7880  -33.8270 N.am   87  ASN87      -0.0877
     67  N        -87.1140  -91.4900  -41.7430 N.3   112  ARG112     -0.1245
     68  CA       -88.5640  -91.3530  -41.8670 C.3   112  ARG112      0.1563
     69  C        -89.1040  -92.0940  -43.0760 C.2   112  ARG112      0.2260
     70  O        -90.1790  -92.6990  -43.0060 O.2   112  ARG112     -0.2867
     71  CB       -88.9790  -89.8860  -41.9200 C.3   112  ARG112      0.0307
     72  CG       -88.5740  -89.1140  -40.6990 C.3   112  ARG112      0.0489
     73  CD       -89.0790  -87.7100  -40.7840 C.3   112  ARG112      0.2205
     74  NE       -90.2880  -87.5270  -39.9990 N.pl3 112  ARG112     -0.0865
     75  CZ       -91.5160  -87.7080  -40.4590 C.cat 112  ARG112      0.5346
     76  NH1      -91.7120  -88.0930  -41.7140 N.pl3 112  ARG112      0.1354
     77  NH2      -92.5470  -87.5030  -39.6520 N.pl3 112  ARG112      0.1354
     78  N        -88.8160  -95.7210  -42.1730 N.3   115  ASP115     -0.1239
     79  CA       -89.8660  -95.8940  -41.1710 C.3   115  ASP115      0.1674
     80  C        -91.2110  -96.1180  -41.8320 C.2   115  ASP115      0.2266
     81  O        -91.8520  -97.1350  -41.6060 O.2   115  ASP115     -0.2867
     82  CB       -89.9330  -94.6760  -40.2480 C.3   115  ASP115      0.1410
     83  CG       -91.0150  -94.8040  -39.2030 C.2   115  ASP115      0.3668
     84  OD1      -92.1770  -94.4520  -39.5010 O.co2 115  ASP115     -0.2456
     85  OD2      -90.6960  -95.2430  -38.0790 O.co2 115  ASP115     -0.2456
     86  N        -93.7480  -99.3060  -41.5620 N.3   119  ARG119     -0.1245
     87  CA       -94.9030  -99.0790  -40.7140 C.3   119  ARG119      0.1563
     88  C        -96.1940  -99.1330  -41.5270 C.2   119  ARG119      0.2260
     89  O        -97.1420  -99.8280  -41.1370 O.2   119  ARG119     -0.2867
     90  CB       -94.7460  -97.7190  -40.0220 C.3   119  ARG119      0.0307
     91  CG       -95.8500  -97.3070  -39.0690 C.3   119  ARG119      0.0489
     92  CD       -95.5870  -95.9060  -38.5390 C.3   119  ARG119      0.2205
     93  NE       -94.2220  -95.7770  -38.0170 N.pl3 119  ARG119     -0.0865
     94  CZ       -93.8540  -96.0330  -36.7610 C.cat 119  ARG119      0.5346
     95  NH1      -94.7440  -96.4290  -35.8570 N.pl3 119  ARG119      0.1354
     96  NH2      -92.5860  -95.8900  -36.4020 N.pl3 119  ARG119      0.1354
@<TRIPOS>BOND
     1    69    70    2
     2    69    68    1
     3    78    79    1
     4    71    68    1
     5    71    72    1
     6    68    67    1
     7    80    81    2
     8    80    79    1
     9    76    75    1
    10    86    87    1
    11    88    89    2
    12    88    87    1
    13    79    82    1
    14    73    72    1
    15    73    74    1
    16    87    90    1
    17    75    74    2
    18    75    77    1
    19    82    83    1
    20    90    91    1
    21    84    83   ar
    22    57    56    1
    23    83    85   ar
    24    91    92    1
    25    92    93    1
    26    56    58    1
    27    56    53    1
    28    93    94    2
    29    43    41    1
    30    61    62    2
    31    61    60    1
    32    55    54    2
    33    54    53    1
    34    54    59   am
    35    53    52    1
    36    94    96    1
    37    94    95    1
    38    60    59    1
    39    60    63    1
    40    41    42    1
    41    41    40    1
    42    52    46   am
    43    40    37    1
    44    63    64    1
    45    46    47    2
    46    46    45    1
    47    64    65    2
    48    64    66   am
    49    39    38    2
    50    38    37    1
    51    38    44   am
    52    37    36    1
    53    45    44    1
    54    45    48    1
    55    36    30   am
    56    50    48    1
    57    48    49    1
    58    30    31    2
    59    30    29    1
    60    49    51    1
    61    27    25    1
    62    29    28    1
    63    29    32    1
    64    25    26    1
    65    25    22    1
    66    32    33    1
    67    20    18   ar
    68    22    21    1
    69    22    23    1
    70    10     8   ar
    71    10    11   ar
    72    12    11    1
    73    34    33    2
    74    17    18    1
    75    17    14    1
    76    16    15    2
    77    18    19   ar
    78    33    35   am
    79     8     6   ar
    80    11     9   ar
    81    21    15   am
    82    15    14    1
    83    24    23    2
    84    14    13    1
    85     6     5    1
    86     6     7   ar
    87     9     7   ar
    88     5     2    1
    89     4     3    2
    90     2     1    1
    91     2     3    1
