@<TRIPOS>MOLECULE
tmp/2c38N01.pdb
 124 115 0 0 0
SMALL
GASTEIGER

@<TRIPOS>ATOM
      1  N        -65.4040  -12.2300  -78.4550 N.3    76  MET76      -0.1245
      2  CA       -65.7910  -10.8330  -78.5850 C.3    76  MET76       0.1570
      3  C        -67.1110  -10.5890  -77.8880 C.2    76  MET76       0.2261
      4  O        -68.1360  -11.2020  -78.2230 O.2    76  MET76      -0.2867
      5  CB       -65.8960  -10.4350  -80.0520 C.3    76  MET76       0.0387
      6  CG       -64.5680  -10.3180  -80.7190 C.3    76  MET76       0.0595
      7  SD       -64.6820   -9.3650  -82.2270 S.3    76  MET76      -0.1393
      8  CE       -64.7070  -10.7120  -83.4310 C.3    76  MET76       0.0692
      9  N        -68.3180   -4.0290  -80.7670 N.3    81  THR81      -0.1203
     10  CA       -68.3570   -3.5640  -82.1490 C.3    81  THR81       0.1994
     11  C        -69.4950   -2.5790  -82.3380 C.2    81  THR81       0.2618
     12  O        -70.2720   -2.3400  -81.4140 O.2    81  THR81      -0.2717
     13  CB       -68.5220   -4.7360  -83.1360 C.3    81  THR81       0.1784
     14  OG1      -69.7280   -5.4480  -82.8420 O.3    81  THR81      -0.2211
     15  CG2      -67.3660   -5.7040  -83.0170 C.3    81  THR81       0.0376
     16  N        -69.5920   -2.0190  -83.5400 N.am   82  ASP82      -0.1959
     17  CA       -70.5770   -0.9810  -83.8290 C.3    82  ASP82       0.1840
     18  C        -72.0040   -1.4930  -83.8660 C.2    82  ASP82       0.2621
     19  O        -72.9420   -0.7400  -83.6030 O.2    82  ASP82      -0.2715
     20  CB       -70.2340   -0.2700  -85.1310 C.3    82  ASP82       0.1450
     21  CG       -69.1420    0.7730  -84.9460 C.2    82  ASP82       0.3671
     22  OD1      -69.4490    1.8960  -84.4690 O.co2  82  ASP82      -0.2456
     23  OD2      -67.9710    0.4670  -85.2720 O.co2  82  ASP82      -0.2456
     24  N        -72.1600   -2.7690  -84.2000 N.am   83  GLU83      -0.1977
     25  CA       -73.4570   -3.4300  -84.1340 C.3    83  GLU83       0.1602
     26  C        -73.3210   -4.7210  -83.3660 C.2    83  GLU83       0.2287
     27  O        -72.3660   -5.4570  -83.5760 O.2    83  GLU83      -0.2864
     28  CB       -73.9890   -3.7050  -85.5270 C.3    83  GLU83       0.0415
     29  CG       -74.6190   -2.4800  -86.1670 C.3    83  GLU83       0.1163
     30  CD       -75.3240   -2.8030  -87.4760 C.2    83  GLU83       0.3649
     31  OE1      -74.8000   -3.6480  -88.2390 O.co2  83  GLU83      -0.2457
     32  OE2      -76.4000   -2.2120  -87.7430 O.co2  83  GLU83      -0.2457
     33  N        -72.3930   -7.7420  -81.8280 N.3    85  LYS85      -0.1245
     34  CA       -71.8380   -9.0560  -82.1890 C.3    85  LYS85       0.1561
     35  C        -72.5770  -10.1190  -81.4030 C.2    85  LYS85       0.2260
     36  O        -72.8500   -9.9540  -80.2170 O.2    85  LYS85      -0.2867
     37  CB       -70.3160   -9.1310  -81.9050 C.3    85  LYS85       0.0271
     38  CG       -69.6230  -10.4420  -82.2550 C.3    85  LYS85       0.0035
     39  CD       -69.7260  -10.7920  -83.7390 C.3    85  LYS85       0.0206
     40  CE       -68.8430  -12.0270  -84.0120 C.3    85  LYS85       0.1093
     41  NZ       -69.0510  -12.4590  -85.4380 N.3    85  LYS85      -0.1314
     42  N        -65.0350  -17.2190  -87.4730 N.3    92  ARG92      -0.1245
     43  CA       -63.9280  -16.2900  -87.2870 C.3    92  ARG92       0.1563
     44  C        -63.3200  -16.4400  -85.9060 C.2    92  ARG92       0.2260
     45  O        -62.1090  -16.5300  -85.7790 O.2    92  ARG92      -0.2867
     46  CB       -64.4080  -14.8540  -87.5130 C.3    92  ARG92       0.0307
     47  CG       -63.3360  -13.8060  -87.3660 C.3    92  ARG92       0.0489
     48  CD       -63.9590  -12.4790  -87.0270 C.3    92  ARG92       0.2205
     49  NE       -63.2070  -11.8130  -85.9700 N.pl3  92  ARG92      -0.0865
     50  CZ       -62.2390  -10.9230  -86.1760 C.cat  92  ARG92       0.5346
     51  NH1      -61.9090  -10.5870  -87.4140 N.pl3  92  ARG92       0.1354
     52  NH2      -61.6000  -10.3630  -85.1470 N.pl3  92  ARG92       0.1354
     53  N        -63.5130   -3.7540  -80.3770 N.3   127  ALA127     -0.1231
     54  CA       -62.7650   -4.1970  -81.5340 C.3   127  ALA127      0.1694
     55  C        -62.5210   -3.0080  -82.4490 C.2   127  ALA127      0.2592
     56  O        -63.4360   -2.2310  -82.7440 O.2   127  ALA127     -0.2718
     57  CB       -63.5010   -5.3050  -82.2570 C.3   127  ALA127      0.0304
     58  N        -61.2730   -2.8610  -82.8750 N.am  128  ASP128     -0.1960
     59  CA       -60.8850   -1.8070  -83.8070 C.3   128  ASP128      0.1840
     60  C        -59.7480   -2.3010  -84.7110 C.2   128  ASP128      0.2622
     61  O        -58.8030   -1.5640  -84.9950 O.2   128  ASP128     -0.2715
     62  CB       -60.4830   -0.5500  -83.0230 C.3   128  ASP128      0.1450
     63  CG       -60.5040    0.7260  -83.8760 C.2   128  ASP128      0.3671
     64  OD1      -61.5240    1.0090  -84.5530 O.co2 128  ASP128     -0.2456
     65  OD2      -59.4940    1.4680  -83.8470 O.co2 128  ASP128     -0.2456
     66  N        -59.8660   -3.5560  -85.1590 N.am  129  ALA129     -0.1963
     67  CA       -58.8460   -4.2610  -85.9650 C.3   129  ALA129      0.1728
     68  C        -57.6050   -4.6420  -85.1660 C.2   129  ALA129      0.2617
     69  O        -57.1810   -3.9260  -84.2560 O.2   129  ALA129     -0.2715
     70  CB       -58.4800   -3.4820  -87.2430 C.3   129  ALA129      0.0334
     71  N        -57.0330   -5.7860  -85.5170 N.am  130  GLY130     -0.1940
     72  CA       -55.9180   -6.3440  -84.7620 C.3   130  GLY130      0.2014
     73  C        -56.3520   -6.7820  -83.3750 C.2   130  GLY130      0.2640
     74  O        -55.5610   -6.7420  -82.4240 O.2   130  GLY130     -0.2714
     75  N        -57.6160   -7.1970  -83.2700 N.am  131  SER131     -0.1935
     76  CA       -58.1990   -7.6810  -82.0160 C.3   131  SER131      0.2055
     77  C        -57.4730   -8.9400  -81.5890 C.2   131  SER131      0.2642
     78  O        -57.2540   -9.1690  -80.4010 O.2   131  SER131     -0.2714
     79  CB       -59.6910   -8.0170  -82.1710 C.3   131  SER131      0.2130
     80  OG       -60.2120   -7.5880  -83.4200 O.3   131  SER131     -0.2179
     81  N        -57.1000   -9.7520  -82.5730 N.am  132  ARG132     -0.1977
     82  CA       -56.4390  -11.0190  -82.3170 C.3   132  ARG132      0.1597
     83  C        -55.0380  -10.8360  -81.7480 C.2   132  ARG132      0.2287
     84  O        -54.5360  -11.7090  -81.0370 O.2   132  ARG132     -0.2864
     85  CB       -56.3630  -11.8350  -83.6040 C.3   132  ARG132      0.0334
     86  CG       -55.1600  -11.5080  -84.4910 C.3   132  ARG132      0.0492
     87  CD       -55.3990  -11.9530  -85.8970 C.3   132  ARG132      0.2205
     88  NE       -56.5630  -11.2710  -86.4330 N.pl3 132  ARG132     -0.0865
     89  CZ       -57.2090  -11.6580  -87.5230 C.cat 132  ARG132      0.5346
     90  NH1      -56.8000  -12.7320  -88.1950 N.pl3 132  ARG132      0.1354
     91  NH2      -58.2630  -10.9660  -87.9410 N.pl3 132  ARG132      0.1354
     92  N        -59.8940    0.1100  -87.8300 N.3   172  GLU172     -0.1245
     93  CA       -61.1180   -0.5570  -88.2430 C.3   172  GLU172      0.1567
     94  C        -61.3200   -0.2550  -89.7320 C.2   172  GLU172      0.2260
     95  O        -61.5500   -1.1630  -90.5400 O.2   172  GLU172     -0.2867
     96  CB       -62.3000   -0.0270  -87.4230 C.3   172  GLU172      0.0388
     97  CG       -63.3160   -1.0970  -86.9960 C.3   172  GLU172      0.1160
     98  CD       -64.1910   -1.5810  -88.1420 C.2   172  GLU172      0.3649
     99  OE1      -65.0460   -0.7910  -88.6040 O.co2 172  GLU172     -0.2457
    100  OE2      -64.0230   -2.7470  -88.5760 O.co2 172  GLU172     -0.2457
    101  N        -58.5660   -1.7440  -92.1490 N.3   175  ASP175     -0.1239
    102  CA       -58.7510   -3.1830  -92.3110 C.3   175  ASP175      0.1674
    103  C        -59.7630   -3.5240  -93.4210 C.2   175  ASP175      0.2266
    104  O        -59.5480   -4.4610  -94.1880 O.2   175  ASP175     -0.2867
    105  CB       -59.1910   -3.8010  -90.9780 C.3   175  ASP175      0.1410
    106  CG       -58.8620   -5.2840  -90.8730 C.2   175  ASP175      0.3668
    107  OD1      -59.2770   -6.0590  -91.7700 O.co2 175  ASP175     -0.2456
    108  OD2      -58.1980   -5.6710  -89.8760 O.co2 175  ASP175     -0.2456
    109  N        -54.2030   -6.8690  -95.1710 N.3   181  ASP181     -0.1239
    110  CA       -54.1930   -6.8620  -93.7140 C.3   181  ASP181      0.1674
    111  C        -53.3600   -8.0720  -93.3090 C.2   181  ASP181      0.2266
    112  O        -53.7180   -9.2190  -93.6020 O.2   181  ASP181     -0.2867
    113  CB       -55.6320   -6.9560  -93.1660 C.3   181  ASP181      0.1410
    114  CG       -55.7060   -7.0250  -91.6250 C.2   181  ASP181      0.3668
    115  OD1      -55.0210   -6.2410  -90.9260 O.co2 181  ASP181     -0.2456
    116  OD2      -56.4880   -7.8580  -91.1080 O.co2 181  ASP181     -0.2456
    117  N        -54.4300  -11.5770  -95.2350 N.3   199  ASN199     -0.1240
    118  CA       -55.6110  -11.5900  -96.0820 C.3   199  ASN199      0.1653
    119  C        -55.6370  -10.3450  -96.9570 C.2   199  ASN199      0.2266
    120  O        -55.4960   -9.2100  -96.4880 O.2   199  ASN199     -0.2867
    121  CB       -56.9020  -11.7540  -95.2640 C.3   199  ASN199      0.1155
    122  CG       -57.0590  -10.7000  -94.1540 C.2   199  ASN199      0.2627
    123  OD1      -57.9490   -9.8300  -94.2220 O.2   199  ASN199     -0.2716
    124  ND2      -56.2060  -10.7840  -93.1220 N.am  199  ASN199     -0.0877
@<TRIPOS>BOND
     1   119   120    2
     2   119   118    1
     3   118   121    1
     4   118   117    1
     5   121   122    1
     6   109   110    1
     7   123   122    2
     8   104   103    2
     9   122   124   am
    10   110   111    1
    11   110   113    1
    12   112   111    2
    13   103   102    1
    14   113   114    1
    15   102   101    1
    16   102   105    1
    17   107   106   ar
    18   114   116   ar
    19   114   115   ar
    20   105   106    1
    21   106   108   ar
    22    95    94    2
    23    94    93    1
    24    99    98   ar
    25   100    98   ar
    26    93    92    1
    27    93    96    1
    28    31    30   ar
    29    90    89    1
    30    98    97    1
    31    91    89    1
    32    32    30   ar
    33    89    88    2
    34    46    47    1
    35    46    43    1
    36    30    29    1
    37    42    43    1
    38    96    97    1
    39    51    50    1
    40    47    48    1
    41    43    44    1
    42    70    67    1
    43    48    49    1
    44    88    87    1
    45    50    49    2
    46    50    52    1
    47    29    28    1
    48    67    68    1
    49    67    66    1
    50    44    45    2
    51    87    86    1
    52    28    25    1
    53    71    68   am
    54    71    72    1
    55    41    40    1
    56    23    21   ar
    57    68    69    2
    58    66    60   am
    59    20    21    1
    60    20    17    1
    61    61    60    2
    62    21    22   ar
    63    72    73    1
    64    60    59    1
    65    64    63   ar
    66    86    85    1
    67    24    25    1
    68    24    18   am
    69    25    26    1
    70    40    39    1
    71    63    65   ar
    72    63    62    1
    73    18    17    1
    74    18    19    2
    75    17    16    1
    76    59    62    1
    77    59    58    1
    78    39    38    1
    79    85    82    1
    80    27    26    2
    81    16    11   am
    82     8     7    1
    83    80    79    1
    84    73    75   am
    85    73    74    2
    86    75    76    1
    87    13    15    1
    88    13    14    1
    89    13    10    1
    90    58    55   am
    91    56    55    2
    92    81    82    1
    93    81    77   am
    94    55    54    1
    95    11    10    1
    96    11    12    2
    97    82    83    1
    98    57    54    1
    99    38    37    1
   100     7     6    1
   101    34    37    1
   102    34    33    1
   103    34    35    1
   104    79    76    1
   105    10     9    1
   106    76    77    1
   107    83    84    2
   108    77    78    2
   109    54    53    1
   110    35    36    2
   111     6     5    1
   112     5     2    1
   113     2     1    1
   114     2     3    1
   115     4     3    2
