@<TRIPOS>MOLECULE
tmp/2c39R00.pdb
 123 111 0 0 0
SMALL
GASTEIGER

@<TRIPOS>ATOM
      1  N        -92.9600  -28.9440  -69.9040 N.3    83  MET83      -0.1245
      2  CA       -94.3610  -28.8040  -70.3120 C.3    83  MET83       0.1570
      3  C        -94.6620  -29.5190  -71.6150 C.2    83  MET83       0.2261
      4  O        -94.0070  -29.2740  -72.6200 O.2    83  MET83      -0.2867
      5  CB       -94.7220  -27.3390  -70.4730 C.3    83  MET83       0.0387
      6  CG       -94.6240  -26.5510  -69.2160 C.3    83  MET83       0.0595
      7  SD       -95.8880  -25.2770  -69.2280 S.3    83  MET83      -0.1393
      8  CE       -94.8210  -23.8630  -68.9220 C.3    83  MET83       0.0692
      9  N       -101.0000  -26.2920  -72.7220 N.3    88  THR88      -0.1218
     10  CA      -101.4540  -24.8930  -72.7570 C.3    88  THR88       0.1862
     11  C       -102.4990  -24.7150  -73.8600 C.2    88  THR88       0.2287
     12  O       -102.7890  -25.6600  -74.5730 O.2    88  THR88      -0.2866
     13  CB      -100.2730  -23.9390  -72.9710 C.3    88  THR88       0.1770
     14  OG1      -99.5390  -24.3500  -74.1320 O.3    88  THR88      -0.2211
     15  CG2      -99.3430  -23.9530  -71.7510 C.3    88  THR88       0.0375
     16  N       -102.3840  -22.6930  -76.4870 N.3    90  GLU90      -0.1245
     17  CA      -101.5970  -22.6010  -77.7070 C.3    90  GLU90       0.1567
     18  C       -100.2480  -23.2680  -77.5290 C.2    90  GLU90       0.2260
     19  O        -99.5200  -23.0330  -76.5450 O.2    90  GLU90      -0.2867
     20  CB      -101.4500  -21.1620  -78.1880 C.3    90  GLU90       0.0388
     21  CG      -102.5900  -20.7370  -79.1230 C.3    90  GLU90       0.1160
     22  CD      -102.3380  -19.3990  -79.8070 C.2    90  GLU90       0.3649
     23  OE1     -101.1580  -19.0630  -80.0700 O.co2  90  GLU90      -0.2457
     24  OE2     -103.3250  -18.6860  -80.0870 O.co2  90  GLU90      -0.2457
     25  N        -97.0990  -24.7720  -76.8140 N.3    92  LYS92      -0.1245
     26  CA       -95.7160  -24.4420  -76.4160 C.3    92  LYS92       0.1561
     27  C        -94.7580  -25.4290  -77.0660 C.2    92  LYS92       0.2260
     28  O        -95.0050  -26.6390  -77.0540 O.2    92  LYS92      -0.2867
     29  CB       -95.5360  -24.4600  -74.9000 C.3    92  LYS92       0.0271
     30  CG       -94.1870  -23.9750  -74.3710 C.3    92  LYS92       0.0035
     31  CD       -94.2890  -23.8310  -72.8540 C.3    92  LYS92       0.0206
     32  CE       -92.9430  -23.8760  -72.1450 C.3    92  LYS92       0.1093
     33  NZ       -92.0500  -22.7550  -72.5210 N.3    92  LYS92      -0.1314
     34  N        -87.4190  -20.2170  -69.5030 N.3    99  ARG99      -0.1245
     35  CA       -88.2780  -20.3020  -68.3340 C.3    99  ARG99       0.1563
     36  C        -88.3010  -21.7220  -67.7400 C.2    99  ARG99       0.2260
     37  O        -88.3100  -21.9020  -66.5380 O.2    99  ARG99      -0.2867
     38  CB       -89.6800  -19.8200  -68.7300 C.3    99  ARG99       0.0307
     39  CG       -90.8060  -20.1690  -67.7810 C.3    99  ARG99       0.0489
     40  CD       -92.0180  -20.5970  -68.5900 C.3    99  ARG99       0.2205
     41  NE       -92.7390  -21.6340  -67.8810 N.pl3  99  ARG99      -0.0865
     42  CZ       -93.6690  -21.4010  -66.9680 C.cat  99  ARG99       0.5346
     43  NH1      -94.0090  -20.1580  -66.6630 N.pl3  99  ARG99       0.1354
     44  NH2      -94.2600  -22.4180  -66.3680 N.pl3  99  ARG99       0.1354
     45  N        -86.9530  -22.7350  -64.0700 N.3   103  LEU103     -0.1245
     46  CA       -87.8550  -23.4430  -63.1600 C.3   103  LEU103      0.1561
     47  C        -87.2480  -24.7300  -62.6780 C.2   103  LEU103      0.2260
     48  O        -87.4310  -25.1010  -61.5330 O.2   103  LEU103     -0.2867
     49  CB       -89.2100  -23.6990  -63.7990 C.3   103  LEU103      0.0270
     50  CG       -90.1280  -22.4760  -63.9160 C.3   103  LEU103      0.0019
     51  CD1      -91.5470  -22.8960  -64.2640 C.3   103  LEU103      0.0001
     52  CD2      -90.1140  -21.6670  -62.6460 C.3   103  LEU103      0.0001
     53  N       -101.4920  -26.9280  -67.9460 N.3   134  ALA134     -0.1245
     54  CA      -100.9570  -25.7840  -67.2480 C.3   134  ALA134      0.1562
     55  C       -102.0550  -24.7550  -67.0510 C.2   134  ALA134      0.2260
     56  O       -102.6390  -24.2740  -68.0290 O.2   134  ALA134     -0.2867
     57  CB       -99.8100  -25.2020  -68.0330 C.3   134  ALA134      0.0290
     58  N       -101.4610  -22.1550  -64.3060 N.3   136  ALA136     -0.1231
     59  CA      -100.7760  -21.4550  -63.2260 C.3   136  ALA136      0.1694
     60  C       -100.4670  -22.3240  -62.0090 C.2   136  ALA136      0.2593
     61  O       -101.1640  -23.3000  -61.7120 O.2   136  ALA136     -0.2718
     62  CB      -101.5320  -20.2130  -62.8240 C.3   136  ALA136      0.0304
     63  N        -99.4020  -21.9550  -61.3090 N.am  137  GLY137     -0.1942
     64  CA       -98.9500  -22.6990  -60.1510 C.3   137  GLY137      0.2014
     65  C        -98.2780  -23.9900  -60.5530 C.2   137  GLY137      0.2640
     66  O        -98.0350  -24.8410  -59.7070 O.2   137  GLY137     -0.2714
     67  N        -97.9560  -24.1210  -61.8420 N.am  138  SER138     -0.1935
     68  CA       -97.3570  -25.3500  -62.3880 C.3   138  SER138      0.2055
     69  C        -95.9700  -25.6770  -61.8530 C.2   138  SER138      0.2642
     70  O        -95.5760  -26.8340  -61.8290 O.2   138  SER138     -0.2714
     71  CB       -97.3400  -25.3220  -63.9170 C.3   138  SER138      0.2130
     72  OG       -96.6070  -24.2200  -64.3880 O.3   138  SER138     -0.2179
     73  N        -95.2380  -24.6630  -61.4200 N.am  139  ARG139     -0.1977
     74  CA       -93.9480  -24.9110  -60.8110 C.3   139  ARG139      0.1597
     75  C        -94.0990  -25.5410  -59.4270 C.2   139  ARG139      0.2287
     76  O        -93.2060  -26.2590  -58.9590 O.2   139  ARG139     -0.2864
     77  CB       -93.1170  -23.6390  -60.7320 C.3   139  ARG139      0.0334
     78  CG       -93.3880  -22.7910  -59.5260 C.3   139  ARG139      0.0492
     79  CD       -92.6540  -21.4850  -59.6640 C.3   139  ARG139      0.2205
     80  NE       -93.0470  -20.8110  -60.8990 N.pl3 139  ARG139     -0.0865
     81  CZ       -92.4550  -19.7310  -61.3930 C.cat 139  ARG139      0.5346
     82  NH1      -91.4210  -19.1850  -60.7610 N.pl3 139  ARG139      0.1354
     83  NH2      -92.8930  -19.2070  -62.5310 N.pl3 139  ARG139      0.1354
     84  N       -104.3950  -19.0320  -64.6990 N.3   179  GLU179     -0.1245
     85  CA      -103.7440  -18.2920  -65.7970 C.3   179  GLU179      0.1567
     86  C       -104.3060  -16.8800  -65.9310 C.2   179  GLU179      0.2260
     87  O       -103.5910  -15.9770  -66.3480 O.2   179  GLU179     -0.2867
     88  CB      -103.8480  -19.0470  -67.1370 C.3   179  GLU179      0.0388
     89  CG      -102.7930  -18.7390  -68.1400 C.3   179  GLU179      0.1160
     90  CD      -101.3540  -18.9260  -67.8880 C.2   179  GLU179      0.3649
     91  OE1     -101.1500  -19.8840  -67.0600 O.co2 179  GLU179     -0.2457
     92  OE2     -100.4050  -18.3900  -68.3660 O.co2 179  GLU179     -0.2457
     93  N       -102.9460  -14.9750  -62.8300 N.3   182  ASP182     -0.1239
     94  CA      -101.5150  -14.8790  -63.0740 C.3   182  ASP182      0.1674
     95  C       -101.2350  -13.8010  -64.1250 C.2   182  ASP182      0.2266
     96  O       -100.3390  -12.9870  -63.9570 O.2   182  ASP182     -0.2867
     97  CB      -100.9470  -16.2370  -63.5130 C.3   182  ASP182      0.1410
     98  CG       -99.4230  -16.3670  -63.2700 C.2   182  ASP182      0.3668
     99  OD1      -98.6510  -15.5940  -63.8830 O.co2 182  ASP182     -0.2456
    100  OD2      -98.9860  -17.2600  -62.4890 O.co2 182  ASP182     -0.2456
    101  N        -97.7920  -12.1580  -58.1310 N.3   188  ASP188     -0.1239
    102  CA       -97.8570  -13.6160  -58.1850 C.3   188  ASP188      0.1674
    103  C        -96.6570  -14.0560  -57.3640 C.2   188  ASP188      0.2266
    104  O        -95.5140  -13.7580  -57.7170 O.2   188  ASP188     -0.2867
    105  CB       -97.7430  -14.1100  -59.6470 C.3   188  ASP188      0.1410
    106  CG       -97.5240  -15.6400  -59.7720 C.2   188  ASP188      0.3668
    107  OD1      -98.0540  -16.4230  -58.9280 O.co2 188  ASP188     -0.2456
    108  OD2      -96.8310  -16.0600  -60.7460 O.co2 188  ASP188     -0.2456
    109  N        -95.2460  -17.5000  -55.6840 N.3   190  PRO190     -0.2116
    110  CA       -95.2190  -18.9160  -55.3140 C.3   190  PRO190      0.1372
    111  C        -94.3730  -19.1520  -54.0580 C.2   190  PRO190      0.2244
    112  O        -93.2700  -18.6150  -53.9450 O.2   190  PRO190     -0.2868
    113  CB       -94.6090  -19.5890  -56.5450 C.3   190  PRO190      0.0268
    114  CG       -93.8200  -18.5240  -57.2120 C.3   190  PRO190      0.0207
    115  CD       -94.4510  -17.2220  -56.9010 C.3   190  PRO190      0.0892
    116  N        -93.0340  -12.3760  -58.6420 N.3   206  ASN206     -0.1240
    117  CA       -93.0070  -11.5270  -59.8300 C.3   206  ASN206      0.1653
    118  C        -94.2030  -10.6090  -59.7720 C.2   206  ASN206      0.2266
    119  O        -95.3230  -11.0420  -59.5040 O.2   206  ASN206     -0.2867
    120  CB       -92.9810  -12.3260  -61.1420 C.3   206  ASN206      0.1155
    121  CG       -93.9260  -13.5080  -61.1290 C.2   206  ASN206      0.2627
    122  OD1      -95.0910  -13.4090  -61.5610 O.2   206  ASN206     -0.2716
    123  ND2      -93.4380  -14.6410  -60.6130 N.am  206  ASN206     -0.0877
@<TRIPOS>BOND
     1    24    22   ar
     2    23    22   ar
     3    22    21    1
     4    21    20    1
     5    20    17    1
     6    17    18    1
     7    17    16    1
     8    18    19    2
     9    27    28    2
    10    27    26    1
    11    25    26    1
    12    26    29    1
    13    29    30    1
    14    12    11    2
    15    30    31    1
    16    14    13    1
    17    11    10    1
    18    13    10    1
    19    13    15    1
    20    31    32    1
    21    10     9    1
    22     4     3    2
    23    33    32    1
    24     3     2    1
    25     5     2    1
    26     5     6    1
    27     2     1    1
    28    34    35    1
    29     7     6    1
    30     7     8    1
    31    38    35    1
    32    38    39    1
    33    40    41    1
    34    40    39    1
    35    92    90   ar
    36    35    36    1
    37    89    90    1
    38    89    88    1
    39    57    54    1
    40    56    55    2
    41    53    54    1
    42    90    91   ar
    43    41    42    2
    44    36    37    2
    45    54    55    1
    46    88    85    1
    47    42    43    1
    48    42    44    1
    49    87    86    2
    50    86    85    1
    51    85    84    1
    52    72    71    1
    53    58    59    1
    54    51    50    1
    55    95    96    2
    56    95    94    1
    57    45    46    1
    58    71    68    1
    59    50    49    1
    60    50    52    1
    61    99    98   ar
    62    49    46    1
    63    97    98    1
    64    97    94    1
    65    98   100   ar
    66    59    62    1
    67    59    60    1
    68    46    47    1
    69    94    93    1
    70    47    48    2
    71    83    81    1
    72    68    69    1
    73    68    67    1
    74    60    61    2
    75    60    63   am
    76    69    70    2
    77    69    73   am
    78    67    65   am
    79   122   121    2
    80    73    74    1
    81    81    80    2
    82    81    82    1
    83    63    64    1
    84   120   121    1
    85   120   117    1
    86   121   123   am
    87    80    79    1
    88    74    77    1
    89    74    75    1
    90   108   106   ar
    91    77    78    1
    92    65    64    1
    93    65    66    2
    94   117   118    1
    95   117   116    1
    96   106   105    1
    97   106   107   ar
    98   118   119    2
    99    79    78    1
   100   105   102    1
   101    75    76    2
   102   102   101    1
   103   102   103    1
   104   104   103    2
   105   114   115    1
   106   114   113    1
   107   115   109    1
   108   113   110    1
   109   109   110    1
   110   110   111    1
   111   111   112    2
