@<TRIPOS>MOLECULE
tmp/2c39V00.pdb
 105 95 0 0 0
SMALL
GASTEIGER

@<TRIPOS>ATOM
      1  N        -39.4390  -97.9680  -76.9680 N.3    75  MET75      -0.1245
      2  CA       -39.0890  -99.3800  -77.0390 C.3    75  MET75       0.1570
      3  C        -37.7350  -99.6590  -76.4180 C.2    75  MET75       0.2261
      4  O        -36.7250  -99.0760  -76.8160 O.2    75  MET75      -0.2867
      5  CB       -39.0610  -99.8600  -78.4800 C.3    75  MET75       0.0387
      6  CG       -40.3610  -99.7070  -79.2100 C.3    75  MET75       0.0595
      7  SD       -40.5010 -101.0250  -80.3990 S.3    75  MET75      -0.1393
      8  CE       -40.6800 -100.0620  -81.8920 C.3    75  MET75       0.0692
      9  N        -36.9440 -106.2590  -79.1740 N.3    80  THR80      -0.1218
     10  CA       -36.9740 -106.7690  -80.5360 C.3    80  THR80       0.1862
     11  C        -35.8470 -107.7620  -80.7450 C.2    80  THR80       0.2287
     12  O        -35.2470 -108.2590  -79.7890 O.2    80  THR80      -0.2866
     13  CB       -36.7840 -105.6210  -81.5600 C.3    80  THR80       0.1770
     14  OG1      -35.6110 -104.8700  -81.2150 O.3    80  THR80      -0.2211
     15  CG2      -37.9920 -104.6780  -81.5870 C.3    80  THR80       0.0375
     16  N        -40.0710  -93.0310  -86.0940 N.3    91  ARG91      -0.1245
     17  CA       -41.2360  -93.8810  -85.8740 C.3    91  ARG91       0.1563
     18  C        -41.7790  -93.8100  -84.4410 C.2    91  ARG91       0.2260
     19  O        -42.9880  -93.8480  -84.2230 O.2    91  ARG91      -0.2867
     20  CB       -40.8710  -95.3270  -86.2410 C.3    91  ARG91       0.0307
     21  CG       -41.8720  -96.3890  -85.8340 C.3    91  ARG91       0.0489
     22  CD       -41.1090  -97.5870  -85.3530 C.3    91  ARG91       0.2205
     23  NE       -41.7890  -98.2010  -84.2270 N.pl3  91  ARG91      -0.0865
     24  CZ       -42.7370  -99.1180  -84.3500 C.cat  91  ARG91       0.5346
     25  NH1      -43.1160  -99.5240  -85.5520 N.pl3  91  ARG91       0.1354
     26  NH2      -43.3000  -99.6380  -83.2680 N.pl3  91  ARG91       0.1354
     27  N        -45.3860  -92.2420  -83.4610 N.3    95  LEU95      -0.1245
     28  CA       -46.2510  -93.0850  -82.6020 C.3    95  LEU95       0.1561
     29  C        -46.6730  -92.4200  -81.3000 C.2    95  LEU95       0.2260
     30  O        -47.8000  -92.6260  -80.8470 O.2    95  LEU95      -0.2867
     31  CB       -45.5990  -94.4370  -82.2900 C.3    95  LEU95       0.0270
     32  CG       -45.5390  -95.4230  -83.4460 C.3    95  LEU95       0.0019
     33  CD1      -45.2120  -96.7730  -82.8960 C.3    95  LEU95       0.0001
     34  CD2      -46.8750  -95.4430  -84.2060 C.3    95  LEU95       0.0001
     35  N        -41.6570 -106.5780  -78.3360 N.3   126  ALA126     -0.1245
     36  CA       -42.3700 -106.1190  -79.5210 C.3   126  ALA126      0.1562
     37  C        -42.6430 -107.2870  -80.4610 C.2   126  ALA126      0.2260
     38  O        -41.7140 -107.9800  -80.8840 O.2   126  ALA126     -0.2867
     39  CB       -41.5850 -105.0240  -80.2220 C.3   126  ALA126      0.0290
     40  N        -45.4510 -106.7210  -82.9290 N.3   128  ALA128     -0.1231
     41  CA       -46.5170 -106.0520  -83.6560 C.3   128  ALA128      0.1694
     42  C        -47.7010 -105.6540  -82.7640 C.2   128  ALA128      0.2593
     43  O        -47.9260 -106.2550  -81.7060 O.2   128  ALA128     -0.2718
     44  CB       -46.9810 -106.9020  -84.8320 C.3   128  ALA128      0.0304
     45  N        -48.4430 -104.6330  -83.2060 N.am  129  GLY129     -0.1942
     46  CA       -49.5770 -104.0780  -82.4660 C.3   129  GLY129      0.2014
     47  C        -49.1480 -103.3100  -81.2330 C.2   129  GLY129      0.2640
     48  O        -49.9800 -102.9560  -80.3970 O.2   129  GLY129     -0.2714
     49  N        -47.8430 -103.0470  -81.1340 N.am  130  SER130     -0.1935
     50  CA       -47.2230 -102.4090  -79.9580 C.3   130  SER130      0.2055
     51  C        -47.7010 -100.9880  -79.7080 C.2   130  SER130      0.2642
     52  O        -47.6650 -100.5240  -78.5720 O.2   130  SER130     -0.2714
     53  CB       -45.6890 -102.4360  -80.0580 C.3   130  SER130      0.2130
     54  OG       -45.2330 -101.7960  -81.2430 O.3   130  SER130     -0.2179
     55  N        -48.1410 -100.2980  -80.7620 N.am  131  ARG131     -0.1977
     56  CA       -48.6910  -98.9670  -80.5950 C.3   131  ARG131      0.1597
     57  C        -50.0490  -99.0560  -79.9190 C.2   131  ARG131      0.2287
     58  O        -50.4630  -98.1110  -79.2520 O.2   131  ARG131     -0.2864
     59  CB       -48.8040  -98.2480  -81.9270 C.3   131  ARG131      0.0334
     60  CG       -50.0300  -98.6250  -82.7380 C.3   131  ARG131      0.0492
     61  CD       -49.9580  -98.0050  -84.1050 C.3   131  ARG131      0.2205
     62  NE       -48.7650  -98.4550  -84.8110 N.pl3 131  ARG131     -0.0865
     63  CZ       -48.2840  -97.8950  -85.9100 C.cat 131  ARG131      0.5346
     64  NH1      -48.8740  -96.8430  -86.4470 N.pl3 131  ARG131      0.1354
     65  NH2      -47.1970  -98.3860  -86.4670 N.pl3 131  ARG131      0.1354
     66  N        -45.5830 -110.3480  -85.8090 N.3   171  GLU171     -0.1245
     67  CA       -44.5980 -109.5230  -86.5050 C.3   171  GLU171      0.1567
     68  C        -44.4560 -110.0500  -87.9240 C.2   171  GLU171      0.2260
     69  O        -44.2400 -109.2740  -88.8590 O.2   171  GLU171     -0.2867
     70  CB       -43.2420 -109.5150  -85.8010 C.3   171  GLU171      0.0388
     71  CG       -42.3360 -108.3470  -86.2490 C.3   171  GLU171      0.1160
     72  CD       -40.8460 -108.7200  -86.3350 C.2   171  GLU171      0.3649
     73  OE1      -40.4040 -109.6680  -85.6420 O.co2 171  GLU171     -0.2457
     74  OE2      -40.1080 -108.0640  -87.1070 O.co2 171  GLU171     -0.2457
     75  N        -47.3260 -108.7310  -89.9520 N.3   174  ASP174     -0.1239
     76  CA       -47.0810 -107.3110  -90.1520 C.3   174  ASP174      0.1674
     77  C        -46.0490 -107.1890  -91.2620 C.2   174  ASP174      0.2266
     78  O        -46.1490 -106.3140  -92.1270 O.2   174  ASP174     -0.2867
     79  CB       -46.5660 -106.6780  -88.8430 C.3   174  ASP174      0.1410
     80  CG       -46.7290 -105.1490  -88.8010 C.2   174  ASP174      0.3668
     81  OD1      -46.1630 -104.4590  -89.6780 O.co2 174  ASP174     -0.2456
     82  OD2      -47.4000 -104.6260  -87.8730 O.co2 174  ASP174     -0.2456
     83  N        -52.0010 -103.6740  -92.9230 N.3   180  ASP180     -0.1239
     84  CA       -52.0300 -103.7230  -91.4720 C.3   180  ASP180      0.1674
     85  C        -52.6950 -102.4340  -91.0550 C.2   180  ASP180      0.2266
     86  O        -52.2690 -101.3350  -91.4270 O.2   180  ASP180     -0.2867
     87  CB       -50.6160 -103.8270  -90.8810 C.3   180  ASP180      0.1410
     88  CG       -50.6530 -103.7750  -89.3420 C.2   180  ASP180      0.3668
     89  OD1      -51.3400 -104.6150  -88.7110 O.co2 180  ASP180     -0.2456
     90  OD2      -49.9820 -102.8590  -88.8100 O.co2 180  ASP180     -0.2456
     91  N        -54.1180 -100.7480  -87.6950 N.3   182  PRO182     -0.2116
     92  CA       -54.4540 -100.5760  -86.2770 C.3   182  PRO182      0.1372
     93  C        -55.7180  -99.7080  -86.0690 C.2   182  PRO182      0.2244
     94  O        -55.8580  -98.6500  -86.6950 O.2   182  PRO182     -0.2868
     95  CB       -53.1920  -99.9100  -85.6960 C.3   182  PRO182      0.0268
     96  CG       -52.5370  -99.2450  -86.8440 C.3   182  PRO182      0.0207
     97  CD       -52.8620 -100.0530  -88.0600 C.3   182  PRO182      0.0892
     98  N        -51.3400  -98.9100  -93.0620 N.3   198  ASN198     -0.1240
     99  CA       -50.1960  -98.9970  -93.9680 C.3   198  ASN198      0.1653
    100  C        -50.3140 -100.2630  -94.8050 C.2   198  ASN198      0.2266
    101  O        -50.6270 -101.3240  -94.2760 O.2   198  ASN198     -0.2867
    102  CB       -48.8560  -98.9550  -93.2250 C.3   198  ASN198      0.1155
    103  CG       -48.8410  -99.8250  -91.9760 C.2   198  ASN198      0.2627
    104  OD1      -48.4410 -100.9930  -92.0190 O.2   198  ASN198     -0.2716
    105  ND2      -49.2740  -99.2540  -90.8490 N.am  198  ASN198     -0.0877
@<TRIPOS>BOND
     1   100   101    2
     2   100    99    1
     3    99   102    1
     4    99    98    1
     5   102   103    1
     6    83    84    1
     7    78    77    2
     8   104   103    2
     9   103   105   am
    10    84    85    1
    11    84    87    1
    12    86    85    2
    13    77    76    1
    14    87    88    1
    15    76    75    1
    16    76    79    1
    17    81    80   ar
    18    88    90   ar
    19    88    89   ar
    20    69    68    2
    21    79    80    1
    22    80    82   ar
    23    97    91    1
    24    97    96    1
    25    68    67    1
    26    91    92    1
    27    74    72   ar
    28    96    95    1
    29    94    93    2
    30    67    66    1
    31    67    70    1
    32    65    63    1
    33    64    63    1
    34    72    71    1
    35    72    73   ar
    36    92    93    1
    37    92    95    1
    38    71    70    1
    39    20    17    1
    40    20    21    1
    41    16    17    1
    42    63    62    2
    43    17    18    1
    44    21    22    1
    45    25    24    1
    46    22    23    1
    47    44    41    1
    48    62    61    1
    49    18    19    2
    50    24    23    2
    51    24    26    1
    52    34    32    1
    53    61    60    1
    54    41    40    1
    55    41    42    1
    56    27    28    1
    57    32    33    1
    58    32    31    1
    59    45    42   am
    60    45    46    1
    61    42    43    2
    62    60    59    1
    63    28    31    1
    64    28    29    1
    65    46    47    1
    66    59    56    1
    67     8     7    1
    68    15    13    1
    69    13    14    1
    70    13    10    1
    71    29    30    2
    72    54    53    1
    73    47    49   am
    74    47    48    2
    75    49    50    1
    76    38    37    2
    77    55    56    1
    78    55    51   am
    79    11    10    1
    80    11    12    2
    81    56    57    1
    82    10     9    1
    83    37    36    1
    84     7     6    1
    85    39    36    1
    86    53    50    1
    87    50    51    1
    88    57    58    2
    89    51    52    2
    90    36    35    1
    91     6     5    1
    92     5     2    1
    93     2     1    1
    94     2     3    1
    95     4     3    2
