@<TRIPOS>MOLECULE
tmp/2c3dB03.pdb
 85 79 0 0 0
SMALL
GASTEIGER

@<TRIPOS>ATOM
      1  N         63.1810  -14.9290   31.7200 N.3    52  ALA52      -0.1245
      2  CA        61.8580  -15.5470   31.7000 C.3    52  ALA52       0.1562
      3  C         61.9020  -17.0400   32.0450 C.2    52  ALA52       0.2260
      4  O         61.1840  -17.5000   32.9290 O.2    52  ALA52      -0.2867
      5  CB        61.2100  -15.3470   30.3320 C.3    52  ALA52       0.0290
      6  N         63.6920  -17.5860   35.7460 N.3    55  ARG55      -0.1231
      7  CA        62.9000  -17.0850   36.8600 C.3    55  ARG55       0.1694
      8  C         61.6490  -17.9280   37.0780 C.2    55  ARG55       0.2592
      9  O         61.3150  -18.2560   38.2160 O.2    55  ARG55      -0.2718
     10  CB        62.5040  -15.6220   36.6210 C.3    55  ARG55       0.0321
     11  CG        62.1100  -14.8710   37.8950 C.3    55  ARG55       0.0489
     12  CD        61.7960  -13.4110   37.6120 C.3    55  ARG55       0.2205
     13  NE        60.4350  -13.2180   37.1190 N.pl3  55  ARG55      -0.0865
     14  CZ        59.3560  -13.1790   37.8970 C.cat  55  ARG55       0.5346
     15  NH1       59.4770  -13.3140   39.2140 N.pl3  55  ARG55       0.1354
     16  NH2       58.1540  -13.0000   37.3590 N.pl3  55  ARG55       0.1354
     17  N         60.9570  -18.2760   35.9930 N.am   56  PHE56      -0.1976
     18  CA        59.7480  -19.0870   36.1020 C.3    56  PHE56       0.1639
     19  C         60.0690  -20.5240   36.5090 C.2    56  PHE56       0.2290
     20  O         59.3540  -21.1240   37.3170 O.2    56  PHE56      -0.2864
     21  CB        58.9630  -19.0590   34.7810 C.3    56  PHE56       0.0560
     22  CG        57.8580  -18.0280   34.7580 C.ar   56  PHE56      -0.0200
     23  CD1       56.5310  -18.4100   34.9240 C.ar   56  PHE56      -0.0042
     24  CD2       58.1500  -16.6690   34.6100 C.ar   56  PHE56      -0.0042
     25  CE1       55.5080  -17.4620   34.9470 C.ar   56  PHE56      -0.0003
     26  CE2       57.1330  -15.7120   34.6310 C.ar   56  PHE56      -0.0003
     27  CZ        55.8110  -16.1100   34.8010 C.ar   56  PHE56      -0.0000
     28  N         64.3110  -11.2420   35.3080 N.3    78  GLY78      -0.1225
     29  CA        63.3610  -10.9390   34.2510 C.3    78  GLY78       0.1811
     30  C         63.9770  -11.0000   32.8660 C.2    78  GLY78       0.2280
     31  O         63.2650  -11.1040   31.8680 O.2    78  GLY78      -0.2866
     32  N         63.3830   -9.2290   28.4370 N.3    81  CYS81      -0.1221
     33  CA        62.0280   -8.6990   28.3480 C.3    81  CYS81       0.1794
     34  C         61.8480   -7.2780   28.9000 C.2    81  CYS81       0.2443
     35  O         61.4590   -6.3690   28.1670 O.2    81  CYS81      -0.2733
     36  CB        61.0090   -9.6410   29.0300 C.3    81  CYS81       0.0970
     37  SG        59.2480   -9.5530   28.5250 S.3    81  CYS81      -0.0800
     38  N         62.1300   -7.0630   30.1960 N.am   82  PRO82      -0.2729
     39  CA        61.9620   -5.7120   30.7380 C.3    82  PRO82       0.1401
     40  C         63.0820   -4.7380   30.4010 C.2    82  PRO82       0.2269
     41  O         62.8690   -3.5250   30.4060 O.2    82  PRO82      -0.2865
     42  CB        61.8660   -5.9570   32.2360 C.3    82  PRO82       0.0296
     43  CG        62.8210   -7.0990   32.4240 C.3    82  PRO82       0.0237
     44  CD        62.4380   -8.0200   31.2750 C.3    82  PRO82       0.0939
     45  N         59.0270   -5.4830   26.6630 N.3    87  VAL87      -0.1245
     46  CA        58.5290   -4.2560   27.2720 C.3    87  VAL87       0.1561
     47  C         58.7540   -3.0020   26.4320 C.2    87  VAL87       0.2260
     48  O         57.7990   -2.3230   26.0790 O.2    87  VAL87      -0.2867
     49  CB        59.1150   -4.0600   28.6880 C.3    87  VAL87       0.0252
     50  CG1       58.6780   -2.7140   29.2470 C.3    87  VAL87       0.0019
     51  CG2       58.6350   -5.1940   29.6020 C.3    87  VAL87       0.0019
     52  N         59.7030   -2.0360   36.4440 N.3   135  PRO135     -0.2116
     53  CA        59.4730   -3.4760   36.3050 C.3   135  PRO135      0.1372
     54  C         60.5950   -4.2860   36.9620 C.2   135  PRO135      0.2244
     55  O         60.3440   -5.3180   37.5760 O.2   135  PRO135     -0.2868
     56  CB        59.4170   -3.6610   34.7920 C.3   135  PRO135      0.0268
     57  CG        58.7890   -2.3730   34.3360 C.3   135  PRO135      0.0207
     58  CD        59.5550   -1.3530   35.1450 C.3   135  PRO135      0.0892
     59  N         60.2690   -7.2790   39.8560 N.3   139  MET139     -0.1245
     60  CA        60.8420   -8.6040   39.6430 C.3   139  MET139      0.1570
     61  C         61.7240   -9.0490   40.8120 C.2   139  MET139      0.2261
     62  O         61.5750  -10.1590   41.3160 O.2   139  MET139     -0.2867
     63  CB        61.6490   -8.6260   38.3390 C.3   139  MET139      0.0387
     64  CG        60.8060   -8.4430   37.0760 C.3   139  MET139      0.0595
     65  SD        59.6420   -9.7970   36.7920 S.3   139  MET139     -0.1393
     66  CE        58.1970   -9.2160   37.6570 C.3   139  MET139      0.0692
     67  N         57.8100  -15.6070   24.8620 N.3   360  MET360     -0.1245
     68  CA        57.7570  -15.6720   26.3150 C.3   360  MET360      0.1570
     69  C         57.0570  -16.9190   26.8510 C.2   360  MET360      0.2261
     70  O         57.5110  -17.4940   27.8360 O.2   360  MET360     -0.2867
     71  CB        57.0810  -14.4150   26.8760 C.3   360  MET360      0.0387
     72  CG        57.9270  -13.1530   26.7500 C.3   360  MET360      0.0595
     73  SD        59.4480  -13.1980   27.7510 S.3   360  MET360     -0.1393
     74  CE        58.8300  -12.7070   29.3320 C.3   360  MET360      0.0692
     75  N         59.0320  -19.4220   29.4620 N.3   364  ARG364     -0.1245
     76  CA        58.4690  -19.6840   30.7820 C.3   364  ARG364      0.1563
     77  C         58.0130  -21.1270   30.9690 C.2   364  ARG364      0.2260
     78  O         58.2950  -21.7450   31.9940 O.2   364  ARG364     -0.2867
     79  CB        57.2800  -18.7550   31.0430 C.3   364  ARG364      0.0307
     80  CG        57.6420  -17.2870   31.2120 C.3   364  ARG364      0.0489
     81  CD        56.3940  -16.4160   31.1490 C.3   364  ARG364      0.2205
     82  NE        56.6740  -15.0210   31.4720 N.pl3 364  ARG364     -0.0865
     83  CZ        55.8400  -14.0110   31.2340 C.cat 364  ARG364      0.5346
     84  NH1       54.6650  -14.2310   30.6600 N.pl3 364  ARG364      0.1354
     85  NH2       56.1740  -12.7780   31.5930 N.pl3 364  ARG364      0.1354
@<TRIPOS>BOND
     1    67    68    1
     2    48    47    2
     3    68    69    1
     4    68    71    1
     5    47    46    1
     6    45    46    1
     7    72    71    1
     8    72    73    1
     9    69    70    2
    10    46    49    1
    11    73    74    1
    12    35    34    2
    13    33    32    1
    14    33    34    1
    15    33    36    1
    16    37    36    1
    17    49    50    1
    18    49    51    1
    19    34    38   am
    20    75    76    1
    21    38    39    1
    22    38    44    1
    23     5     2    1
    24    40    41    2
    25    40    39    1
    26    84    83    1
    27    39    42    1
    28    76    77    1
    29    76    79    1
    30    77    78    2
    31    79    80    1
    32    81    80    1
    33    81    82    1
    34    83    82    2
    35    83    85    1
    36    44    43    1
    37     2     1    1
    38     2     3    1
    39    31    30    2
    40     3     4    2
    41    42    43    1
    42    30    29    1
    43    29    28    1
    44    57    56    1
    45    57    58    1
    46    24    26   ar
    47    24    22   ar
    48    26    27   ar
    49    22    21    1
    50    22    23   ar
    51    21    18    1
    52    56    53    1
    53    27    25   ar
    54    23    25   ar
    55    58    52    1
    56     6     7    1
    57    17    18    1
    58    17     8   am
    59    18    19    1
    60    53    52    1
    61    53    54    1
    62    19    20    2
    63    10     7    1
    64    10    11    1
    65    65    64    1
    66    65    66    1
    67     7     8    1
    68    54    55    2
    69    64    63    1
    70     8     9    2
    71    13    12    1
    72    13    14    2
    73    16    14    1
    74    12    11    1
    75    14    15    1
    76    63    60    1
    77    60    59    1
    78    60    61    1
    79    61    62    2
