@<TRIPOS>MOLECULE
tmp/2c3eA03.pdb
 230 225 0 0 0
SMALL
GASTEIGER

@<TRIPOS>ATOM
      1  N         26.7350   19.4780   48.0690 N.3    90  PHE90      -0.1241
      2  CA        25.4910   19.4560   48.8570 C.3    90  PHE90       0.1605
      3  C         24.2990   18.6290   48.3640 C.2    90  PHE90       0.2264
      4  O         23.5690   18.0550   49.1710 O.2    90  PHE90      -0.2867
      5  CB        24.9890   20.8830   49.0810 C.3    90  PHE90       0.0534
      6  CG        25.9770   21.7860   49.7620 C.ar   90  PHE90      -0.0203
      7  CD1       27.1620   22.1540   49.1300 C.ar   90  PHE90      -0.0042
      8  CD2       25.7060   22.3000   51.0280 C.ar   90  PHE90      -0.0042
      9  CE1       28.0620   23.0240   49.7470 C.ar   90  PHE90      -0.0003
     10  CE2       26.5970   23.1710   51.6560 C.ar   90  PHE90      -0.0003
     11  CZ        27.7780   23.5340   51.0130 C.ar   90  PHE90      -0.0000
     12  N         21.4420   16.9120   50.8390 N.3    94  TYR94      -0.1241
     13  CA        20.0870   17.4230   50.8880 C.3    94  TYR94       0.1605
     14  C         19.1050   16.2890   50.6070 C.2    94  TYR94       0.2264
     15  O         18.0510   16.1990   51.2460 O.2    94  TYR94      -0.2867
     16  CB        19.9540   18.5830   49.8960 C.3    94  TYR94       0.0534
     17  CG        20.5360   19.8810   50.4400 C.ar   94  TYR94      -0.0201
     18  CD1       21.3030   20.7370   49.6340 C.ar   94  TYR94      -0.0009
     19  CD2       20.3120   20.2530   51.7700 C.ar   94  TYR94      -0.0009
     20  CE1       21.8340   21.9350   50.1530 C.ar   94  TYR94       0.0417
     21  CE2       20.8320   21.4370   52.2980 C.ar   94  TYR94       0.0417
     22  CZ        21.5890   22.2750   51.4950 C.ar   94  TYR94       0.1957
     23  OH        22.0820   23.4450   52.0550 O.3    94  TYR94      -0.2866
     24  N         18.7720   14.3150   53.8480 N.3    97  ILE97      -0.1231
     25  CA        18.2070   15.0440   54.9560 C.3    97  ILE97       0.1692
     26  C         16.7070   15.0650   54.7630 C.2    97  ILE97       0.2592
     27  O         15.9570   14.8890   55.7170 O.2    97  ILE97      -0.2718
     28  CB        18.7370   16.5040   55.0140 C.3    97  ILE97       0.0266
     29  CG1       20.1830   16.4960   55.5210 C.3    97  ILE97       0.0019
     30  CG2       17.8360   17.3750   55.9130 C.3    97  ILE97       0.0020
     31  CD1       20.9260   17.8070   55.3310 C.3    97  ILE97       0.0001
     32  N         16.2740   15.2500   53.5170 N.am   98  PHE98      -0.1976
     33  CA        14.8510   15.3360   53.2390 C.3    98  PHE98       0.1639
     34  C         14.1980   14.0950   52.6590 C.2    98  PHE98       0.2290
     35  O         13.0510   13.7990   52.9820 O.2    98  PHE98      -0.2864
     36  CB        14.5570   16.5180   52.3110 C.3    98  PHE98       0.0560
     37  CG        15.1400   17.8320   52.7740 C.ar   98  PHE98      -0.0200
     38  CD1       16.2900   18.3480   52.1730 C.ar   98  PHE98      -0.0042
     39  CD2       14.5180   18.5730   53.7880 C.ar   98  PHE98      -0.0042
     40  CE1       16.8160   19.5860   52.5660 C.ar   98  PHE98      -0.0003
     41  CE2       15.0300   19.8140   54.1950 C.ar   98  PHE98      -0.0003
     42  CZ        16.1810   20.3250   53.5810 C.ar   98  PHE98      -0.0000
     43  N         16.4620   23.4450   48.6860 N.3   121  ALA121     -0.1245
     44  CA        17.6420   23.7650   49.4770 C.3   121  ALA121      0.1562
     45  C         18.9100   23.8310   48.6380 C.2   121  ALA121      0.2260
     46  O         19.6950   24.7730   48.7710 O.2   121  ALA121     -0.2867
     47  CB        17.8220   22.7400   50.5930 C.3   121  ALA121      0.0290
     48  N         18.9300   26.9380   46.3370 N.3   124  ALA124     -0.1231
     49  CA        19.2030   28.1150   47.1600 C.3   124  ALA124      0.1694
     50  C         20.6850   28.2370   47.5210 C.2   124  ALA124      0.2592
     51  O         21.2250   29.3450   47.5670 O.2   124  ALA124     -0.2718
     52  CB        18.3650   28.0600   48.4410 C.3   124  ALA124      0.0304
     53  N         21.3230   27.0930   47.7850 N.am  125  THR125     -0.1953
     54  CA        22.7410   27.0400   48.1430 C.3   125  THR125      0.1897
     55  C         23.6190   27.5020   46.9930 C.2   125  THR125      0.2313
     56  O         24.4420   28.3920   47.1600 O.2   125  THR125     -0.2863
     57  CB        23.1830   25.6040   48.5310 C.3   125  THR125      0.1794
     58  OG1       22.4910   25.1820   49.7150 O.3   125  THR125     -0.2208
     59  CG2       24.6900   25.5630   48.7810 C.3   125  THR125      0.0378
     60  N         23.0760   31.1540   46.0200 N.3   128  CYS128     -0.1221
     61  CA        23.8060   31.9010   47.0360 C.3   128  CYS128      0.1808
     62  C         25.1740   32.3830   46.5370 C.2   128  CYS128      0.2601
     63  O         25.5950   33.5070   46.8380 O.2   128  CYS128     -0.2717
     64  CB        23.9810   31.0140   48.2780 C.3   128  CYS128      0.0970
     65  SG        24.2640   31.9000   49.8260 S.3   128  CYS128     -0.0800
     66  N         25.8440   31.5330   45.7550 N.am  129  PHE129     -0.1976
     67  CA        27.1720   31.8270   45.2220 C.3   129  PHE129      0.1639
     68  C         27.2680   32.3540   43.7830 C.2   129  PHE129      0.2290
     69  O         27.9100   33.3810   43.5440 O.2   129  PHE129     -0.2864
     70  CB        28.0610   30.5880   45.3700 C.3   129  PHE129      0.0560
     71  CG        28.4520   30.2960   46.7900 C.ar  129  PHE129     -0.0200
     72  CD1       27.4780   30.1030   47.7720 C.ar  129  PHE129     -0.0042
     73  CD2       29.7970   30.2410   47.1570 C.ar  129  PHE129     -0.0042
     74  CE1       27.8340   29.8630   49.1050 C.ar  129  PHE129     -0.0003
     75  CE2       30.1680   30.0020   48.4860 C.ar  129  PHE129     -0.0003
     76  CZ        29.1820   29.8130   49.4630 C.ar  129  PHE129     -0.0000
     77  N         26.6290   43.9710   48.0170 N.3   169  LEU169     -0.1231
     78  CA        26.0950   42.6870   47.5810 C.3   169  LEU169      0.1693
     79  C         24.5760   42.7220   47.4660 C.2   169  LEU169      0.2591
     80  O         23.9900   41.9030   46.7660 O.2   169  LEU169     -0.2718
     81  CB        26.5020   41.5670   48.5500 C.3   169  LEU169      0.0284
     82  CG        27.9670   41.1130   48.6460 C.3   169  LEU169      0.0019
     83  CD1       28.0950   40.0870   49.7650 C.3   169  LEU169      0.0001
     84  CD2       28.4410   40.5160   47.3210 C.3   169  LEU169      0.0001
     85  N         23.9340   43.6650   48.1470 N.am  170  ARG170     -0.1980
     86  CA        22.4760   43.7490   48.1000 C.3   170  ARG170      0.1597
     87  C         21.9740   43.9700   46.6750 C.2   170  ARG170      0.2287
     88  O         20.9740   43.3720   46.2630 O.2   170  ARG170     -0.2864
     89  CB        21.9700   44.8680   49.0250 C.3   170  ARG170      0.0334
     90  CG        20.4330   44.9330   49.0110 C.3   170  ARG170      0.0492
     91  CD        19.8880   46.0500   49.8280 C.3   170  ARG170      0.2205
     92  NE        20.4440   47.3660   49.4580 N.pl3 170  ARG170     -0.0865
     93  CZ        19.9310   48.1070   48.4660 C.cat 170  ARG170      0.5346
     94  NH1       18.9030   47.6410   47.7730 N.pl3 170  ARG170      0.1354
     95  NH2       20.4570   49.2770   48.1710 N.pl3 170  ARG170      0.1354
     96  N         22.2270   40.8790   44.3080 N.3   173  TYR173     -0.1227
     97  CA        21.3430   39.7510   44.6110 C.3   173  TYR173      0.1736
     98  C         19.8570   40.0180   44.5460 C.2   173  TYR173      0.2595
     99  O         19.0930   39.2560   45.1110 O.2   173  TYR173     -0.2718
    100  CB        21.6390   39.1500   46.0000 C.3   173  TYR173      0.0548
    101  CG        22.9090   38.3210   46.1130 C.ar  173  TYR173     -0.0200
    102  CD1       24.1510   38.9310   46.2800 C.ar  173  TYR173     -0.0009
    103  CD2       22.8650   36.9250   46.0590 C.ar  173  TYR173     -0.0009
    104  CE1       25.3210   38.1750   46.3900 C.ar  173  TYR173      0.0417
    105  CE2       24.0310   36.1600   46.1650 C.ar  173  TYR173      0.0417
    106  CZ        25.2550   36.7960   46.3280 C.ar  173  TYR173      0.1957
    107  OH        26.4210   36.0690   46.3950 O.3   173  TYR173     -0.2866
    108  N         19.4300   41.0720   43.8690 N.am  174  GLN174     -0.1965
    109  CA        18.0000   41.3090   43.8010 C.3   174  GLN174      0.1733
    110  C         17.2920   40.2340   42.9930 C.2   174  GLN174      0.2617
    111  O         17.7890   39.7830   41.9540 O.2   174  GLN174     -0.2715
    112  CB        17.7090   42.6840   43.2260 C.3   174  GLN174      0.0408
    113  CG        17.9140   43.7780   44.2420 C.3   174  GLN174      0.0908
    114  CD        17.0850   44.9870   43.9260 C.2   174  GLN174      0.2608
    115  OE1       15.8850   44.8730   43.6710 O.2   174  GLN174     -0.2717
    116  NE2       17.7100   46.1620   43.9450 N.am  174  GLN174     -0.0878
    117  N         16.1300   39.8210   43.4940 N.am  175  GLY175     -0.1940
    118  CA        15.3430   38.7820   42.8460 C.3   175  GLY175      0.2014
    119  C         15.5790   37.4110   43.4620 C.2   175  GLY175      0.2639
    120  O         14.8670   36.4490   43.1600 O.2   175  GLY175     -0.2714
    121  N         16.5790   37.3290   44.3380 N.am  176  PHE176     -0.1959
    122  CA        16.9330   36.0780   44.9990 C.3   176  PHE176      0.1771
    123  C         15.7130   35.3030   45.5240 C.2   176  PHE176      0.2619
    124  O         15.4420   34.1850   45.0730 O.2   176  PHE176     -0.2715
    125  CB        17.9080   36.3460   46.1520 C.3   176  PHE176      0.0574
    126  CG        18.3990   35.0980   46.8260 C.ar  176  PHE176     -0.0200
    127  CD1       19.3770   34.3050   46.2230 C.ar  176  PHE176     -0.0042
    128  CD2       17.8420   34.6780   48.0330 C.ar  176  PHE176     -0.0042
    129  CE1       19.7950   33.1070   46.8080 C.ar  176  PHE176     -0.0003
    130  CE2       18.2470   33.4810   48.6260 C.ar  176  PHE176     -0.0003
    131  CZ        19.2270   32.6920   48.0100 C.ar  176  PHE176     -0.0000
    132  N         14.9920   35.8970   46.4760 N.am  177  ASN177     -0.1972
    133  CA        13.8160   35.2660   47.0580 C.3   177  ASN177      0.1688
    134  C         12.8980   34.6520   46.0170 C.2   177  ASN177      0.2292
    135  O         12.8120   33.4300   45.9300 O.2   177  ASN177     -0.2864
    136  CB        13.0340   36.2720   47.8980 C.3   177  ASN177      0.1181
    137  CG        13.6570   36.4950   49.2590 C.2   177  ASN177      0.2629
    138  OD1       13.5440   37.5780   49.8300 O.2   177  ASN177     -0.2716
    139  ND2       14.3090   35.4650   49.7950 N.am  177  ASN177     -0.0877
    140  N         11.5020   30.8480   45.0790 N.3   181  GLN181     -0.1245
    141  CA        10.1130   30.4060   45.0830 C.3   181  GLN181      0.1566
    142  C          9.9140   29.7450   43.7170 C.2   181  GLN181      0.2260
    143  O          9.3790   28.6330   43.6130 O.2   181  GLN181     -0.2867
    144  CB         9.1740   31.6050   45.2310 C.3   181  GLN181      0.0367
    145  CG         9.1960   32.2190   46.6090 C.3   181  GLN181      0.0905
    146  CD         8.8190   33.6810   46.6070 C.2   181  GLN181      0.2608
    147  OE1        7.8270   34.0870   45.9900 O.2   181  GLN181     -0.2717
    148  NE2        9.6070   34.4880   47.3070 N.am  181  GLN181     -0.0878
    149  N         11.1440   26.1050   43.2480 N.3   184  ILE184     -0.1231
    150  CA        10.2850   25.0970   43.8570 C.3   184  ILE184      0.1692
    151  C          9.0500   24.8790   42.9870 C.2   184  ILE184      0.2591
    152  O          8.5710   23.7490   42.8610 O.2   184  ILE184     -0.2718
    153  CB         9.8370   25.5140   45.2710 C.3   184  ILE184      0.0266
    154  CG1       11.0460   25.8730   46.1240 C.3   184  ILE184      0.0019
    155  CG2        9.1590   24.3620   45.9610 C.3   184  ILE184      0.0020
    156  CD1       10.6930   26.6060   47.3950 C.3   184  ILE184      0.0001
    157  N          8.5340   25.9580   42.3950 N.am  185  ILE185     -0.1980
    158  CA         7.3660   25.8620   41.5140 C.3   185  ILE185      0.1595
    159  C          7.7310   25.0480   40.2760 C.2   185  ILE185      0.2287
    160  O          6.9770   24.1830   39.8440 O.2   185  ILE185     -0.2864
    161  CB         6.8560   27.2710   41.0540 C.3   185  ILE185      0.0276
    162  CG1        6.2300   28.0080   42.2320 C.3   185  ILE185      0.0022
    163  CG2        5.7640   27.1250   39.9890 C.3   185  ILE185      0.0022
    164  CD1        4.9920   27.3010   42.7790 C.3   185  ILE185      0.0001
    165  N          7.3430   33.8820   37.9200 N.3   230  PHE230     -0.1241
    166  CA         8.3370   34.0910   38.9660 C.3   230  PHE230      0.1605
    167  C          9.6620   34.5580   38.3930 C.2   230  PHE230      0.2264
    168  O         10.3770   35.3580   39.0010 O.2   230  PHE230     -0.2867
    169  CB         8.5370   32.8050   39.7690 C.3   230  PHE230      0.0534
    170  CG         7.3530   32.4320   40.6140 C.ar  230  PHE230     -0.0203
    171  CD1        6.2860   31.7300   40.0730 C.ar  230  PHE230     -0.0042
    172  CD2        7.2820   32.8400   41.9430 C.ar  230  PHE230     -0.0042
    173  CE1        5.1740   31.4430   40.8380 C.ar  230  PHE230     -0.0003
    174  CE2        6.1680   32.5570   42.7170 C.ar  230  PHE230     -0.0003
    175  CZ         5.1130   31.8600   42.1640 C.ar  230  PHE230     -0.0000
    176  N         13.3720   42.7950   39.0790 N.3   237  MET237     -0.1245
    177  CA        14.0030   43.2960   40.2920 C.3   237  MET237      0.1570
    178  C         15.5050   43.4490   40.0650 C.2   237  MET237      0.2261
    179  O         16.1310   44.3550   40.6090 O.2   237  MET237     -0.2867
    180  CB        13.7660   42.3270   41.4580 C.3   237  MET237      0.0387
    181  CG        12.3010   41.9620   41.7330 C.3   237  MET237      0.0595
    182  SD        11.2080   43.3750   42.0710 S.3   237  MET237     -0.1393
    183  CE        12.2220   44.3280   43.2290 C.3   237  MET237      0.0692
    184  N         10.3360   48.3830   44.3700 N.3   251  THR251     -0.1203
    185  CA        11.0860   48.4490   45.6120 C.3   251  THR251      0.1994
    186  C         11.2590   47.0390   46.1870 C.2   251  THR251      0.2618
    187  O         12.3330   46.6880   46.6810 O.2   251  THR251     -0.2717
    188  CB        10.3640   49.3550   46.6160 C.3   251  THR251      0.1784
    189  OG1        8.9630   49.0460   46.6080 O.3   251  THR251     -0.2211
    190  CG2       10.5670   50.8270   46.2420 C.3   251  THR251      0.0376
    191  N         10.2030   46.2310   46.1050 N.am  252  GLY252     -0.1942
    192  CA        10.2770   44.8650   46.6050 C.3   252  GLY252      0.2014
    193  C          9.5540   43.8610   45.7220 C.2   252  GLY252      0.2640
    194  O          8.7950   44.2400   44.8180 O.2   252  GLY252     -0.2714
    195  N          9.7990   42.5760   45.9780 N.am  253  THR253     -0.1936
    196  CA         9.1610   41.4860   45.2300 C.3   253  THR253      0.2028
    197  C          7.6430   41.7270   45.0970 C.2   253  THR253      0.2642
    198  O          7.0910   41.7130   43.9910 O.2   253  THR253     -0.2714
    199  CB         9.3920   40.1160   45.9410 C.3   253  THR253      0.1808
    200  OG1       10.7820   39.9660   46.2700 O.3   253  THR253     -0.2208
    201  CG2        8.9590   38.9580   45.0490 C.3   253  THR253      0.0379
    202  N          6.9740   41.9430   46.2290 N.am  254  VAL254     -0.1963
    203  CA         5.5270   42.1840   46.2410 C.3   254  VAL254      0.1727
    204  C          5.1840   43.4700   45.4750 C.2   254  VAL254      0.2616
    205  O          4.1460   43.5620   44.8090 O.2   254  VAL254     -0.2715
    206  CB         4.9830   42.3190   47.6900 C.3   254  VAL254      0.0290
    207  CG1        3.4810   42.0500   47.7020 C.3   254  VAL254      0.0023
    208  CG2        5.7160   41.3680   48.6280 C.3   254  VAL254      0.0023
    209  N          6.0720   44.4570   45.5940 N.am  255  ASP255     -0.1971
    210  CA         5.9280   45.7440   44.9270 C.3   255  ASP255      0.1709
    211  C          5.9610   45.4570   43.4330 C.2   255  ASP255      0.2293
    212  O          5.3930   46.1970   42.6280 O.2   255  ASP255     -0.2864
    213  CB         7.0990   46.6590   45.3090 C.3   255  ASP255      0.1436
    214  CG         6.8810   48.0990   44.8880 C.2   255  ASP255      0.3671
    215  OD1        5.9570   48.7360   45.4340 O.co2 255  ASP255     -0.2456
    216  OD2        7.6310   48.5950   44.0180 O.co2 255  ASP255     -0.2456
    217  N          5.1300   42.1140   41.8470 N.3   257  TRP257     -0.1241
    218  CA         3.9630   41.3570   41.3810 C.3   257  TRP257      0.1605
    219  C          2.8300   42.3490   41.2460 C.2   257  TRP257      0.2264
    220  O          1.9570   42.1950   40.3950 O.2   257  TRP257     -0.2867
    221  CB         3.5080   40.2930   42.3870 C.3   257  TRP257      0.0550
    222  CG         4.4120   39.1120   42.5750 C.ar  257  TRP257      0.0003
    223  CD1        5.3790   38.9570   43.5360 C.ar  257  TRP257      0.0946
    224  CD2        4.3870   37.8840   41.8300 C.ar  257  TRP257      0.0152
    225  NE1        5.9480   37.7070   43.4400 N.ar  257  TRP257     -0.2442
    226  CE2        5.3610   37.0280   42.3990 C.ar  257  TRP257      0.0810
    227  CE3        3.6390   37.4210   40.7360 C.ar  257  TRP257      0.0012
    228  CZ2        5.6030   35.7320   41.9110 C.ar  257  TRP257      0.0191
    229  CZ3        3.8840   36.1260   40.2490 C.ar  257  TRP257      0.0001
    230  CH2        4.8570   35.3040   40.8390 C.ar  257  TRP257      0.0015
@<TRIPOS>BOND
     1   165   166    1
     2   167   166    1
     3   167   168    2
     4   166   169    1
     5   176   177    1
     6   169   170    1
     7   160   159    2
     8   163   161    1
     9   178   177    1
    10   178   179    2
    11   171   170   ar
    12   171   173   ar
    13   229   227   ar
    14   229   230   ar
    15   159   158    1
    16   177   180    1
    17   220   219    2
    18   170   172   ar
    19   227   224   ar
    20   173   175   ar
    21   230   228   ar
    22   161   158    1
    23   161   162    1
    24   219   218    1
    25   218   217    1
    26   218   221    1
    27   180   181    1
    28   158   157    1
    29   181   182    1
    30   224   226   ar
    31   224   222   ar
    32   228   226   ar
    33   172   174   ar
    34   111   110    2
    35   182   183    1
    36   175   174   ar
    37   162   164    1
    38   221   222    1
    39   157   151   am
    40   226   225   ar
    41   222   223   ar
    42   212   211    2
    43   118   119    1
    44   118   117    1
    45   152   151    2
    46   151   150    1
    47   110   117   am
    48   110   109    1
    49   120   119    2
    50   112   109    1
    51   112   113    1
    52   149   150    1
    53   211   210    1
    54   225   223   ar
    55   119   121   am
    56    69    68    2
    57   143   142    2
    58   115   114    2
    59   142   141    1
    60    68    67    1
    61   109   108    1
    62   150   153    1
    63   108    98   am
    64   114   116   am
    65   114   113    1
    66   198   197    2
    67   216   214   ar
    68    96    97    1
    69   121   122    1
    70   184   185    1
    71    98    97    1
    72    98    99    2
    73    97   100    1
    74   205   204    2
    75   194   193    2
    76   214   213    1
    77   214   215   ar
    78   210   213    1
    79   210   209    1
    80   122   123    1
    81   122   125    1
    82   201   199    1
    83   124   123    2
    84   140   141    1
    85   141   144    1
    86   197   196    1
    87   197   202   am
    88    67    70    1
    89    67    66    1
    90   196   199    1
    91   196   195    1
    92   144   145    1
    93   153   155    1
    94   153   154    1
    95    70    71    1
    96   204   209   am
    97   204   203    1
    98   123   132   am
    99   185   186    1
   100   185   188    1
   101   193   195   am
   102   193   192    1
   103    66    62   am
   104   135   134    2
   105   199   200    1
   106   147   146    2
   107   100   101    1
   108   134   133    1
   109    60    61    1
   110   103   101   ar
   111   103   105   ar
   112   191   186   am
   113   191   192    1
   114   101   102   ar
   115   154   156    1
   116   125   126    1
   117   105   106   ar
   118   186   187    2
   119   127   129   ar
   120   127   126   ar
   121   202   203    1
   122   203   206    1
   123   190   188    1
   124    88    87    2
   125   102   104   ar
   126   106   104   ar
   127   106   107    1
   128    48    49    1
   129   132   133    1
   130    62    63    2
   131    62    61    1
   132   146   145    1
   133   146   148   am
   134   189   188    1
   135    87    86    1
   136    80    79    2
   137    71    73   ar
   138    71    72   ar
   139   129   131   ar
   140   126   128   ar
   141    55    56    2
   142    55    54    1
   143    61    64    1
   144   133   136    1
   145    73    75   ar
   146    49    50    1
   147    49    52    1
   148    84    82    1
   149    79    78    1
   150    79    85   am
   151    50    51    2
   152    50    53   am
   153    78    77    1
   154    78    81    1
   155   206   207    1
   156   206   208    1
   157    72    74   ar
   158    94    93    1
   159    53    54    1
   160   136   137    1
   161   131   130   ar
   162   128   130   ar
   163     1     2    1
   164    86    85    1
   165    86    89    1
   166    54    57    1
   167    95    93    1
   168    64    65    1
   169     3     2    1
   170     3     4    2
   171    93    92    2
   172    75    76   ar
   173    57    59    1
   174    57    58    1
   175    81    82    1
   176    45    46    2
   177    45    44    1
   178    82    83    1
   179    43    44    1
   180     2     5    1
   181    90    89    1
   182    90    91    1
   183     5     6    1
   184    74    76   ar
   185     7     9   ar
   186     7     6   ar
   187   137   139   am
   188   137   138    2
   189    92    91    1
   190    44    47    1
   191    18    20   ar
   192    18    17   ar
   193     9    11   ar
   194     6     8   ar
   195    16    17    1
   196    16    13    1
   197    20    22   ar
   198    17    19   ar
   199    14    13    1
   200    14    15    2
   201    12    13    1
   202    11    10   ar
   203     8    10   ar
   204    22    23    1
   205    22    21   ar
   206    19    21   ar
   207    38    40   ar
   208    38    37   ar
   209    36    37    1
   210    36    33    1
   211    40    42   ar
   212    34    35    2
   213    34    33    1
   214    37    39   ar
   215    33    32    1
   216    32    26   am
   217    42    41   ar
   218    39    41   ar
   219    24    25    1
   220    26    25    1
   221    26    27    2
   222    25    28    1
   223    28    29    1
   224    28    30    1
   225    31    29    1
