@<TRIPOS>MOLECULE
tmp/2c3eA02.pdb
 155 149 0 0 0
SMALL
GASTEIGER

@<TRIPOS>ATOM
      1  N         18.5920   33.7130   20.9930 N.3    28  ILE28      -0.1245
      2  CA        17.1680   33.6770   21.2880 C.3    28  ILE28       0.1561
      3  C         16.9530   33.9270   22.7770 C.2    28  ILE28       0.2260
      4  O         15.9260   34.4720   23.1780 O.2    28  ILE28      -0.2867
      5  CB        16.4970   32.3110   20.8460 C.3    28  ILE28       0.0252
      6  CG1       14.9950   32.3510   21.1250 C.3    28  ILE28       0.0019
      7  CG2       17.0770   31.1320   21.5930 C.3    28  ILE28       0.0019
      8  CD1       14.2550   33.4940   20.4310 C.3    28  ILE28       0.0001
      9  N         12.3830   41.0390   25.5920 N.3    35  LEU35      -0.1245
     10  CA        10.9260   41.0560   25.6620 C.3    35  LEU35       0.1561
     11  C         10.4170   41.0020   27.1120 C.2    35  LEU35       0.2260
     12  O          9.3860   41.5940   27.4550 O.2    35  LEU35      -0.2867
     13  CB        10.3560   39.8470   24.9130 C.3    35  LEU35       0.0270
     14  CG        10.5660   39.6980   23.4020 C.3    35  LEU35       0.0019
     15  CD1        9.8980   38.4080   22.9360 C.3    35  LEU35       0.0001
     16  CD2        9.9810   40.9080   22.6610 C.3    35  LEU35       0.0001
     17  N          8.2730   44.5720   19.0730 N.3    51  LYS51      -0.1231
     18  CA         6.9670   43.9640   18.8100 C.3    51  LYS51       0.1693
     19  C          6.9170   42.4390   18.9430 C.2    51  LYS51       0.2593
     20  O          5.8530   41.8270   18.8080 O.2    51  LYS51      -0.2718
     21  CB         6.5180   44.3430   17.3940 C.3    51  LYS51       0.0285
     22  CG         6.3740   45.8360   17.1450 C.3    51  LYS51       0.0035
     23  CD         6.4150   46.1740   15.6490 C.3    51  LYS51       0.0206
     24  CE         5.3100   45.4850   14.8450 C.3    51  LYS51       0.1093
     25  NZ         5.3880   45.7780   13.3760 N.3    51  LYS51      -0.1314
     26  N          8.0640   41.8180   19.1890 N.am   52  GLY52      -0.1942
     27  CA         8.0960   40.3730   19.3070 C.3    52  GLY52       0.2014
     28  C          9.4800   39.8990   18.9360 C.2    52  GLY52       0.2639
     29  O         10.3990   40.7060   18.8420 O.2    52  GLY52      -0.2714
     30  N          9.6240   38.5970   18.7240 N.am   53  ILE53      -0.1963
     31  CA        10.9080   37.9830   18.3750 C.3    53  ILE53       0.1727
     32  C         11.4850   38.5060   17.0570 C.2    53  ILE53       0.2616
     33  O         12.5430   39.1300   17.0310 O.2    53  ILE53      -0.2715
     34  CB        10.7610   36.4390   18.2690 C.3    53  ILE53       0.0290
     35  CG1        9.9610   35.9140   19.4690 C.3    53  ILE53       0.0022
     36  CG2       12.1500   35.7820   18.2120 C.3    53  ILE53       0.0023
     37  CD1        9.6010   34.4410   19.3930 C.3    53  ILE53       0.0001
     38  N         10.7900   38.2370   15.9620 N.am   54  ILE54      -0.1963
     39  CA        11.2340   38.6840   14.6490 C.3    54  ILE54       0.1727
     40  C         11.5910   40.1560   14.6510 C.2    54  ILE54       0.2616
     41  O         12.6810   40.5320   14.2450 O.2    54  ILE54      -0.2715
     42  CB        10.1470   38.4550   13.6040 C.3    54  ILE54       0.0290
     43  CG1        9.9800   36.9530   13.3800 C.3    54  ILE54       0.0022
     44  CG2       10.4970   39.2000   12.3140 C.3    54  ILE54       0.0023
     45  CD1        8.8120   36.6100   12.5280 C.3    54  ILE54       0.0001
     46  N         10.6610   40.9880   15.1000 N.am   55  ASP55      -0.1971
     47  CA        10.8940   42.4260   15.1580 C.3    55  ASP55       0.1709
     48  C         12.2390   42.7180   15.8440 C.2    55  ASP55       0.2293
     49  O         13.0350   43.5500   15.4020 O.2    55  ASP55      -0.2864
     50  CB         9.7490   43.0820   15.9360 C.3    55  ASP55       0.1436
     51  CG         9.7950   44.5910   15.8780 C.2    55  ASP55       0.3671
     52  OD1       10.5220   45.2230   16.6750 O.co2  55  ASP55      -0.2456
     53  OD2        9.1030   45.1490   15.0100 O.co2  55  ASP55      -0.2456
     54  N         15.0290   40.4520   16.5980 N.3    57  VAL57      -0.1245
     55  CA        16.2450   39.9440   15.9680 C.3    57  VAL57       0.1561
     56  C         16.5270   40.6400   14.6380 C.2    57  VAL57       0.2260
     57  O         17.6640   40.6640   14.1540 O.2    57  VAL57      -0.2867
     58  CB        16.1680   38.4220   15.6800 C.3    57  VAL57       0.0252
     59  CG1       15.3890   37.7040   16.7710 C.3    57  VAL57       0.0019
     60  CG2       15.5590   38.1770   14.3090 C.3    57  VAL57       0.0019
     61  N          6.4560   22.7710   29.9050 N.3   222  VAL222     -0.1245
     62  CA         5.2770   23.0350   30.7130 C.3   222  VAL222      0.1561
     63  C          5.7040   23.5930   32.0580 C.2   222  VAL222      0.2260
     64  O          5.1770   24.6200   32.5140 O.2   222  VAL222     -0.2867
     65  CB         4.4090   21.7580   30.9320 C.3   222  VAL222      0.0252
     66  CG1        3.3420   22.0230   32.0160 C.3   222  VAL222      0.0019
     67  CG2        3.7240   21.3580   29.6110 C.3   222  VAL222      0.0019
     68  N          6.7490   27.0230   31.9350 N.3   225  LEU225     -0.1231
     69  CA         5.6770   27.9830   31.7160 C.3   225  LEU225      0.1693
     70  C          4.9520   28.3220   33.0090 C.2   225  LEU225      0.2591
     71  O          4.5330   29.4640   33.2260 O.2   225  LEU225     -0.2718
     72  CB         4.6870   27.4230   30.7050 C.3   225  LEU225      0.0284
     73  CG         5.1590   27.5410   29.2610 C.3   225  LEU225      0.0019
     74  CD1        4.3440   26.6050   28.3760 C.3   225  LEU225      0.0001
     75  CD2        5.0560   29.0030   28.8090 C.3   225  LEU225      0.0001
     76  N          4.8170   27.3170   33.8630 N.am  226  VAL226     -0.1980
     77  CA         4.1420   27.4750   35.1370 C.3   226  VAL226      0.1595
     78  C          4.8990   28.3650   36.1200 C.2   226  VAL226      0.2287
     79  O          4.3010   29.0430   36.9600 O.2   226  VAL226     -0.2864
     80  CB         3.9340   26.1100   35.8000 C.3   226  VAL226      0.0276
     81  CG1        3.1550   26.2730   37.1000 C.3   226  VAL226      0.0022
     82  CG2        3.2270   25.1820   34.8440 C.3   226  VAL226      0.0022
     83  N         -0.8820   39.4270   32.1140 N.3   267  LYS267     -0.1245
     84  CA        -0.0090   38.5890   31.2970 C.3   267  LYS267      0.1561
     85  C          1.4190   39.0840   31.1280 C.2   267  LYS267      0.2260
     86  O          2.2960   38.3300   30.7120 O.2   267  LYS267     -0.2867
     87  CB        -0.6320   38.3950   29.9170 C.3   267  LYS267      0.0271
     88  CG        -2.0650   37.9000   29.9240 C.3   267  LYS267      0.0035
     89  CD        -2.5160   37.6300   28.4950 C.3   267  LYS267      0.0206
     90  CE        -2.4600   38.8890   27.6200 C.3   267  LYS267      0.1093
     91  NZ        -3.6610   39.7670   27.7480 N.3   267  LYS267     -0.1314
     92  N          4.1460   36.8540   31.3650 N.3   270  PHE270     -0.1227
     93  CA         4.5600   35.9320   30.3160 C.3   270  PHE270      0.1736
     94  C          5.2100   36.5910   29.1070 C.2   270  PHE270      0.2595
     95  O          5.1640   36.0630   28.0070 O.2   270  PHE270     -0.2718
     96  CB         3.3850   35.0890   29.8570 C.3   270  PHE270      0.0547
     97  CG         2.9270   34.1150   30.8750 C.ar  270  PHE270     -0.0202
     98  CD1        2.3160   34.5540   32.0440 C.ar  270  PHE270     -0.0042
     99  CD2        3.0960   32.7470   30.6690 C.ar  270  PHE270     -0.0042
    100  CE1        1.8680   33.6400   33.0050 C.ar  270  PHE270     -0.0003
    101  CE2        2.6590   31.8160   31.6150 C.ar  270  PHE270     -0.0003
    102  CZ         2.0400   32.2640   32.7880 C.ar  270  PHE270     -0.0000
    103  N          5.8130   37.7500   29.3120 N.am  271  LYS271     -0.1966
    104  CA         6.4900   38.4100   28.2210 C.3   271  LYS271      0.1728
    105  C          7.8090   37.6630   27.9920 C.2   271  LYS271      0.2617
    106  O          8.7470   37.7720   28.7940 O.2   271  LYS271     -0.2715
    107  CB         6.7720   39.8790   28.5690 C.3   271  LYS271      0.0311
    108  CG         5.5620   40.8110   28.4950 C.3   271  LYS271      0.0038
    109  CD         5.9520   42.2500   28.8600 C.3   271  LYS271      0.0206
    110  CE         4.7680   43.2140   28.7380 C.3   271  LYS271      0.1093
    111  NZ         5.1620   44.6220   29.0230 N.3   271  LYS271     -0.1314
    112  N          7.8650   36.8970   26.9040 N.am  272  GLY272     -0.1940
    113  CA         9.0670   36.1510   26.5590 C.3   272  GLY272      0.2014
    114  C          8.9230   34.6630   26.8030 C.2   272  GLY272      0.2639
    115  O          9.8450   33.8730   26.5710 O.2   272  GLY272     -0.2714
    116  N          7.7410   34.2810   27.2550 N.am  273  ALA273     -0.1963
    117  CA         7.4690   32.9000   27.5740 C.3   273  ALA273      0.1728
    118  C          7.6640   31.9330   26.4160 C.2   273  ALA273      0.2616
    119  O          8.2020   30.8410   26.6100 O.2   273  ALA273     -0.2715
    120  CB         6.0760   32.7760   28.1370 C.3   273  ALA273      0.0334
    121  N          7.2330   32.3340   25.2270 N.am  274  TRP274     -0.1960
    122  CA         7.3430   31.5050   24.0270 C.3   274  TRP274      0.1771
    123  C          8.7810   31.4130   23.5860 C.2   274  TRP274      0.2620
    124  O          9.2600   30.3440   23.1970 O.2   274  TRP274     -0.2715
    125  CB         6.5260   32.1040   22.8790 C.3   274  TRP274      0.0590
    126  CG         6.6080   31.3360   21.5890 C.ar  274  TRP274      0.0006
    127  CD1        6.8670   31.8520   20.3510 C.ar  274  TRP274      0.0946
    128  CD2        6.3670   29.9280   21.3980 C.ar  274  TRP274      0.0152
    129  NE1        6.7970   30.8540   19.3990 N.ar  274  TRP274     -0.2442
    130  CE2        6.4910   29.6680   20.0120 C.ar  274  TRP274      0.0810
    131  CE3        6.0530   28.8650   22.2610 C.ar  274  TRP274      0.0012
    132  CZ2        6.3120   28.3890   19.4650 C.ar  274  TRP274      0.0191
    133  CZ3        5.8740   27.5810   21.7160 C.ar  274  TRP274      0.0001
    134  CH2        6.0040   27.3620   20.3280 C.ar  274  TRP274      0.0015
    135  N          9.4520   32.5570   23.6200 N.am  275  SER275     -0.1950
    136  CA        10.8470   32.6570   23.2450 C.3   275  SER275      0.1924
    137  C         11.6490   31.7540   24.1650 C.2   275  SER275      0.2314
    138  O         12.6180   31.1160   23.7500 O.2   275  SER275     -0.2863
    139  CB        11.3110   34.1040   23.4000 C.3   275  SER275      0.2116
    140  OG        10.5880   34.9580   22.5310 O.3   275  SER275     -0.2180
    141  N         10.6160   29.0710   25.4480 N.3   277  VAL277     -0.1231
    142  CA        10.2440   27.6880   25.1610 C.3   277  VAL277      0.1692
    143  C         11.1710   27.2360   24.0340 C.2   277  VAL277      0.2591
    144  O         11.6790   26.1110   24.0330 O.2   277  VAL277     -0.2718
    145  CB         8.7370   27.5620   24.6760 C.3   277  VAL277      0.0266
    146  CG1        8.3690   26.0940   24.4360 C.3   277  VAL277      0.0020
    147  CG2        7.7940   28.1410   25.7060 C.3   277  VAL277      0.0020
    148  N         11.3700   28.1220   23.0660 N.am  278  LEU278     -0.1980
    149  CA        12.2460   27.8360   21.9500 C.3   278  LEU278      0.1596
    150  C         13.6860   27.6690   22.4590 C.2   278  LEU278      0.2287
    151  O         14.3730   26.7090   22.1160 O.2   278  LEU278     -0.2864
    152  CB        12.1820   28.9810   20.9420 C.3   278  LEU278      0.0297
    153  CG        10.8030   29.2710   20.3450 C.3   278  LEU278      0.0022
    154  CD1       10.9200   30.4260   19.3530 C.3   278  LEU278      0.0001
    155  CD2       10.2390   28.0150   19.6610 C.3   278  LEU278      0.0001
@<TRIPOS>BOND
     1    44    42    1
     2    45    43    1
     3    25    24    1
     4    43    42    1
     5    42    39    1
     6    57    56    2
     7    41    40    2
     8    60    58    1
     9    56    55    1
    10    39    40    1
    11    39    38    1
    12    40    46   am
    13    24    23    1
    14    53    51   ar
    15    46    47    1
    16    47    48    1
    17    47    50    1
    18    49    48    2
    19    23    22    1
    20    58    55    1
    21    58    59    1
    22    51    50    1
    23    51    52   ar
    24    38    32   am
    25    55    54    1
    26    33    32    2
    27    32    31    1
    28    22    21    1
    29    21    18    1
    30    36    34    1
    31    34    31    1
    32    34    35    1
    33    31    30    1
    34    30    28   am
    35    20    19    2
    36    18    19    1
    37    18    17    1
    38    29    28    2
    39    28    27    1
    40    19    26   am
    41    26    27    1
    42   154   153    1
    43    37    35    1
    44   129   130   ar
    45   129   127   ar
    46   132   130   ar
    47   132   134   ar
    48   155   153    1
    49   130   128   ar
    50   134   133   ar
    51   153   152    1
    52   127   126   ar
    53     8     6    1
    54     5     6    1
    55     5     2    1
    56     5     7    1
    57   152   149    1
    58     1     2    1
    59     2     3    1
    60   128   126   ar
    61   128   131   ar
    62   126   125    1
    63   133   131   ar
    64   149   150    1
    65   149   148    1
    66   151   150    2
    67   140   139    1
    68    16    14    1
    69     3     4    2
    70   125   122    1
    71    15    14    1
    72   148   143   am
    73   124   123    2
    74   136   139    1
    75   136   135    1
    76   136   137    1
    77    14    13    1
    78   123   135   am
    79   123   122    1
    80   138   137    2
    81   122   121    1
    82   144   143    2
    83   143   142    1
    84   146   145    1
    85   145   142    1
    86   145   147    1
    87    13    10    1
    88   142   141    1
    89   121   118   am
    90     9    10    1
    91    10    11    1
    92   118   119    2
    93   118   117    1
    94   113   114    1
    95   113   112    1
    96   115   114    2
    97   114   116   am
    98   112   105   am
    99    11    12    2
   100   116   117    1
   101   117   120    1
   102    90    91    1
   103    90    89    1
   104   105   104    1
   105   105   106    2
   106    95    94    2
   107   104   107    1
   108   104   103    1
   109    74    73    1
   110    89    88    1
   111   108   107    1
   112   108   109    1
   113   110   109    1
   114   110   111    1
   115    75    73    1
   116    94   103   am
   117    94    93    1
   118    73    72    1
   119    67    65    1
   120    96    93    1
   121    96    97    1
   122    61    62    1
   123    87    88    1
   124    87    84    1
   125    93    92    1
   126    99    97   ar
   127    99   101   ar
   128    72    69    1
   129    86    85    2
   130    62    65    1
   131    62    63    1
   132    97    98   ar
   133    65    66    1
   134    85    84    1
   135    84    83    1
   136   101   102   ar
   137    69    68    1
   138    69    70    1
   139    98   100   ar
   140    63    64    2
   141   102   100   ar
   142    70    71    2
   143    70    76   am
   144    76    77    1
   145    82    80    1
   146    77    80    1
   147    77    78    1
   148    80    81    1
   149    78    79    2
