@<TRIPOS>MOLECULE
tmp/2c3eA01.pdb
 209 200 0 0 0
SMALL
GASTEIGER

@<TRIPOS>ATOM
      1  N         33.5980   16.1980   34.0410 N.3    11  PHE11      -0.1241
      2  CA        33.3880   17.5510   34.5340 C.3    11  PHE11       0.1605
      3  C         33.7540   18.5570   33.4420 C.2    11  PHE11       0.2264
      4  O         32.9890   19.4690   33.1400 O.2    11  PHE11      -0.2867
      5  CB        34.2770   17.7650   35.7540 C.3    11  PHE11       0.0534
      6  CG        34.1110   19.0960   36.4050 C.ar   11  PHE11      -0.0203
      7  CD1       32.9910   19.3690   37.1800 C.ar   11  PHE11      -0.0042
      8  CD2       35.0850   20.0790   36.2590 C.ar   11  PHE11      -0.0042
      9  CE1       32.8410   20.6080   37.8120 C.ar   11  PHE11      -0.0003
     10  CE2       34.9480   21.3210   36.8830 C.ar   11  PHE11      -0.0003
     11  CZ        33.8210   21.5860   37.6630 C.ar   11  PHE11      -0.0000
     12  N         31.0850   20.6560   31.1790 N.3    15  GLY15      -0.1210
     13  CA        31.1010   22.1030   31.1350 C.3    15  GLY15       0.1956
     14  C         31.3250   22.6020   29.7300 C.2    15  GLY15       0.2611
     15  O         30.8290   23.6630   29.3430 O.2    15  GLY15      -0.2717
     16  N         32.0820   21.8450   28.9490 N.am   16  VAL16      -0.1979
     17  CA        32.3370   22.2550   27.5870 C.3    16  VAL16       0.1595
     18  C         31.0400   22.1230   26.8340 C.2    16  VAL16       0.2287
     19  O         30.7120   22.9680   26.0090 O.2    16  VAL16      -0.2864
     20  CB        33.3960   21.3800   26.9160 C.3    16  VAL16       0.0276
     21  CG1       33.5180   21.7450   25.4380 C.3    16  VAL16       0.0022
     22  CG2       34.7160   21.5710   27.6100 C.3    16  VAL16       0.0022
     23  N         28.6760   24.9990   27.7780 N.3    19  ALA19      -0.1231
     24  CA        29.0770   26.2290   27.1210 C.3    19  ALA19       0.1694
     25  C         28.5290   26.3050   25.7000 C.2    19  ALA19       0.2591
     26  O         28.0060   27.3390   25.2810 O.2    19  ALA19      -0.2718
     27  CB        30.5950   26.3260   27.1070 C.3    19  ALA19       0.0304
     28  N         28.6370   25.2000   24.9710 N.am   20  ILE20      -0.1980
     29  CA        28.1840   25.1280   23.5850 C.3    20  ILE20       0.1595
     30  C         26.6810   25.3230   23.3650 C.2    20  ILE20       0.2287
     31  O         26.2820   26.1050   22.4990 O.2    20  ILE20      -0.2864
     32  CB        28.6330   23.7890   22.9400 C.3    20  ILE20       0.0276
     33  CG1       30.1610   23.7220   22.9450 C.3    20  ILE20       0.0022
     34  CG2       28.1050   23.6720   21.5200 C.3    20  ILE20       0.0022
     35  CD1       30.7240   22.6040   22.1140 C.3    20  ILE20       0.0001
     36  N         25.6480   29.0020   24.2990 N.3    23  THR23      -0.1203
     37  CA        26.1350   29.9450   23.3010 C.3    23  THR23       0.1994
     38  C         25.3400   29.8340   22.0060 C.2    23  THR23       0.2617
     39  O         25.0580   30.8380   21.3440 O.2    23  THR23      -0.2717
     40  CB        27.6180   29.6840   23.0120 C.3    23  THR23       0.1784
     41  OG1       28.3380   29.7360   24.2490 O.3    23  THR23      -0.2211
     42  CG2       28.1810   30.7230   22.0440 C.3    23  THR23       0.0376
     43  N         24.9790   28.6100   21.6430 N.am   24  ALA24      -0.1979
     44  CA        24.2050   28.4050   20.4370 C.3    24  ALA24       0.1597
     45  C         22.8790   29.1430   20.5570 C.2    24  ALA24       0.2287
     46  O         22.5150   29.8930   19.6630 O.2    24  ALA24      -0.2864
     47  CB        23.9650   26.9380   20.2190 C.3    24  ALA24       0.0319
     48  N         27.1190   40.8210   16.7690 N.3    67  LEU67      -0.1245
     49  CA        27.6830   40.1460   17.9320 C.3    67  LEU67       0.1561
     50  C         26.9210   40.4220   19.2250 C.2    67  LEU67       0.2260
     51  O         27.1080   39.7120   20.2120 O.2    67  LEU67      -0.2867
     52  CB        29.1490   40.5280   18.1030 C.3    67  LEU67       0.0270
     53  CG        30.0180   40.2330   16.8750 C.3    67  LEU67       0.0019
     54  CD1       29.6310   41.1520   15.6730 C.3    67  LEU67       0.0001
     55  CD2       31.4820   40.4400   17.2590 C.3    67  LEU67       0.0001
     56  N         25.0570   37.8870   21.5030 N.3    70  TRP70      -0.1227
     57  CA        25.7700   37.2000   22.5910 C.3    70  TRP70       0.1737
     58  C         26.1040   38.0480   23.8100 C.2    70  TRP70       0.2595
     59  O         26.9120   37.6640   24.6520 O.2    70  TRP70      -0.2718
     60  CB        27.0370   36.5470   22.0580 C.3    70  TRP70       0.0564
     61  CG        26.7040   35.3950   21.1960 C.ar   70  TRP70       0.0003
     62  CD1       26.4640   34.1030   21.5930 C.ar   70  TRP70       0.0946
     63  CD2       26.4310   35.4430   19.7930 C.ar   70  TRP70       0.0152
     64  NE1       26.0540   33.3520   20.5220 N.ar   70  TRP70      -0.2442
     65  CE2       26.0220   34.1470   19.4040 C.ar   70  TRP70       0.0810
     66  CE3       26.4850   36.4610   18.8250 C.ar   70  TRP70       0.0012
     67  CZ2       25.6650   33.8390   18.0880 C.ar   70  TRP70       0.0191
     68  CZ3       26.1290   36.1580   17.5170 C.ar   70  TRP70       0.0001
     69  CH2       25.7200   34.8510   17.1590 C.ar   70  TRP70       0.0015
     70  N         25.4260   39.1830   23.9040 N.am   71  ARG71      -0.1966
     71  CA        25.6110   40.1130   24.9940 C.3    71  ARG71       0.1729
     72  C         25.1730   39.5420   26.3470 C.2    71  ARG71       0.2617
     73  O         23.9730   39.3750   26.6120 O.2    71  ARG71      -0.2715
     74  CB        24.8430   41.3980   24.6850 C.3    71  ARG71       0.0348
     75  CG        24.9770   42.4650   25.7510 C.3    71  ARG71       0.0492
     76  CD        24.6960   43.8280   25.1900 C.3    71  ARG71       0.2205
     77  NE        25.7210   44.1860   24.2170 N.pl3  71  ARG71      -0.0865
     78  CZ        25.7100   45.2910   23.4730 C.cat  71  ARG71       0.5346
     79  NH1       24.7170   46.1730   23.5800 N.pl3  71  ARG71       0.1354
     80  NH2       26.6990   45.5090   22.6090 N.pl3  71  ARG71       0.1354
     81  N         26.1610   39.2550   27.1950 N.am   72  GLY72      -0.1940
     82  CA        25.9140   38.7250   28.5230 C.3    72  GLY72       0.2014
     83  C         26.2150   37.2450   28.5880 C.2    72  GLY72       0.2639
     84  O         26.2380   36.6440   29.6670 O.2    72  GLY72      -0.2714
     85  N         26.4660   36.6530   27.4230 N.am   73  ASN73      -0.1958
     86  CA        26.7340   35.2210   27.3380 C.3    73  ASN73       0.1819
     87  C         27.8550   34.6830   28.2330 C.2    73  ASN73       0.2621
     88  O         27.6820   33.6590   28.8750 O.2    73  ASN73      -0.2715
     89  CB        27.0190   34.8210   25.8880 C.3    73  ASN73       0.1195
     90  CG        26.9450   33.3160   25.6820 C.2    73  ASN73       0.2630
     91  OD1       27.8110   32.7110   25.0460 O.2    73  ASN73      -0.2716
     92  ND2       25.8960   32.7040   26.2160 N.am   73  ASN73      -0.0877
     93  N         28.9960   35.3680   28.2720 N.am   74  LEU74      -0.1963
     94  CA        30.1430   34.9320   29.0700 C.3    74  LEU74       0.1728
     95  C         29.7360   34.2720   30.3700 C.2    74  LEU74       0.2616
     96  O         30.2200   33.1940   30.7020 O.2    74  LEU74      -0.2715
     97  CB        31.0500   36.1160   29.3990 C.3    74  LEU74       0.0311
     98  CG        32.5300   35.8410   29.7180 C.3    74  LEU74       0.0022
     99  CD1       33.0850   37.0280   30.5230 C.3    74  LEU74       0.0001
    100  CD2       32.7080   34.5530   30.5120 C.3    74  LEU74       0.0001
    101  N         28.8520   34.9270   31.1150 N.am   75  ALA75      -0.1977
    102  CA        28.4050   34.3890   32.3950 C.3    75  ALA75       0.1597
    103  C         27.8050   32.9860   32.2460 C.2    75  ALA75       0.2287
    104  O         28.0090   32.1310   33.1110 O.2    75  ALA75      -0.2864
    105  CB        27.4090   35.3390   33.0270 C.3    75  ALA75       0.0319
    106  N         28.6660   30.6420   30.1630 N.3    77  VAL77      -0.1231
    107  CA        29.7470   29.6540   30.0690 C.3    77  VAL77       0.1692
    108  C         30.5280   29.4340   31.3750 C.2    77  VAL77       0.2591
    109  O         31.0570   28.3460   31.6130 O.2    77  VAL77      -0.2718
    110  CB        30.7520   30.0170   28.9470 C.3    77  VAL77       0.0266
    111  CG1       29.9930   30.3380   27.6780 C.3    77  VAL77       0.0020
    112  CG2       31.6350   31.1780   29.3710 C.3    77  VAL77       0.0020
    113  N         30.5970   30.4610   32.2120 N.am   78  ILE78      -0.1980
    114  CA        31.3040   30.3570   33.4850 C.3    78  ILE78       0.1595
    115  C         30.5070   29.5370   34.4950 C.2    78  ILE78       0.2287
    116  O         30.9230   28.4580   34.9190 O.2    78  ILE78      -0.2864
    117  CB        31.5240   31.7360   34.1540 C.3    78  ILE78       0.0276
    118  CG1       32.4680   32.6060   33.3350 C.3    78  ILE78       0.0022
    119  CG2       32.0990   31.5360   35.5400 C.3    78  ILE78       0.0022
    120  CD1       32.6730   33.9880   33.9400 C.3    78  ILE78       0.0001
    121  N         30.8570   25.5120   35.9310 N.3    81  PHE81      -0.1228
    122  CA        31.8630   24.9390   36.7940 C.3    81  PHE81       0.1721
    123  C         31.6970   25.2600   38.2680 C.2    81  PHE81       0.2437
    124  O         31.7400   24.3620   39.1050 O.2    81  PHE81      -0.2733
    125  CB        33.2280   25.3390   36.2540 C.3    81  PHE81       0.0547
    126  CG        33.4020   25.0010   34.7880 C.ar   81  PHE81      -0.0202
    127  CD1       32.8520   25.8310   33.7940 C.ar   81  PHE81      -0.0042
    128  CD2       34.0720   23.8340   34.4010 C.ar   81  PHE81      -0.0042
    129  CE1       32.9660   25.5070   32.4280 C.ar   81  PHE81      -0.0003
    130  CE2       34.1940   23.4940   33.0400 C.ar   81  PHE81      -0.0003
    131  CZ        33.6380   24.3370   32.0470 C.ar   81  PHE81      -0.0000
    132  N         31.5130   26.5380   38.6160 N.am   82  PRO82      -0.2729
    133  CA        31.3370   26.8540   40.0410 C.3    82  PRO82       0.1401
    134  C         30.0580   26.2080   40.6260 C.2    82  PRO82       0.2269
    135  O         30.0250   25.7730   41.7800 O.2    82  PRO82      -0.2865
    136  CB        31.2910   28.3850   40.0530 C.3    82  PRO82       0.0296
    137  CG        30.8310   28.7440   38.6510 C.3    82  PRO82       0.0237
    138  CD        31.6110   27.7630   37.8070 C.3    82  PRO82       0.0939
    139  N         30.6270   22.3420   41.2350 N.3    85  ALA85      -0.1245
    140  CA        31.4440   22.0540   42.4060 C.3    85  ALA85       0.1562
    141  C         30.5440   21.9680   43.6240 C.2    85  ALA85       0.2260
    142  O         30.6220   21.0130   44.4060 O.2    85  ALA85      -0.2867
    143  CB        32.4840   23.1490   42.6100 C.3    85  ALA85       0.0290
    144  N         26.3540   35.9850   38.7480 N.3   133  LEU133     -0.1245
    145  CA        26.5490   35.7340   37.3190 C.3   133  LEU133      0.1561
    146  C         25.2010   35.8720   36.5880 C.2   133  LEU133      0.2260
    147  O         25.1130   36.4890   35.5280 O.2   133  LEU133     -0.2867
    148  CB        27.0960   34.3300   37.1010 C.3   133  LEU133      0.0270
    149  CG        28.3330   33.9540   37.9020 C.3   133  LEU133      0.0019
    150  CD1       28.5940   32.4580   37.7740 C.3   133  LEU133      0.0001
    151  CD2       29.5080   34.7470   37.3920 C.3   133  LEU133      0.0001
    152  N         23.4370   42.7070   31.3940 N.3   140  LEU140     -0.1245
    153  CA        24.0450   42.8810   30.0830 C.3   140  LEU140      0.1561
    154  C         23.0940   42.5790   28.9220 C.2   140  LEU140      0.2260
    155  O         23.0780   43.2900   27.9290 O.2   140  LEU140     -0.2867
    156  CB        25.2580   41.9740   29.9680 C.3   140  LEU140      0.0270
    157  CG        26.4030   42.3220   30.9070 C.3   140  LEU140      0.0019
    158  CD1       27.3460   41.1450   30.9970 C.3   140  LEU140      0.0001
    159  CD2       27.1220   43.5540   30.3920 C.3   140  LEU140      0.0001
    160  N         26.4080   52.4040   26.7810 N.3   151  ARG151     -0.1245
    161  CA        26.3620   51.0910   27.4160 C.3   151  ARG151      0.1563
    162  C         26.4240   51.1850   28.9430 C.2   151  ARG151      0.2260
    163  O         27.3410   51.8020   29.4830 O.2   151  ARG151     -0.2867
    164  CB        27.5500   50.2530   26.9250 C.3   151  ARG151      0.0307
    165  CG        27.4780   49.8310   25.4610 C.3   151  ARG151      0.0489
    166  CD        26.4180   48.7590   25.2560 C.3   151  ARG151      0.2205
    167  NE        26.7110   47.5620   26.0450 N.pl3 151  ARG151     -0.0865
    168  CZ        27.7800   46.7900   25.8600 C.cat 151  ARG151      0.5346
    169  NH1       28.6530   47.0940   24.9120 N.pl3 151  ARG151      0.1354
    170  NH2       27.9750   45.7140   26.6150 N.pl3 151  ARG151      0.1354
    171  N         30.5180   47.7780   30.6440 N.3   154  THR154     -0.1203
    172  CA        31.4790   47.3870   29.6230 C.3   154  THR154      0.1994
    173  C         31.7860   45.8870   29.6800 C.2   154  THR154      0.2618
    174  O         32.7310   45.3980   29.0410 O.2   154  THR154     -0.2717
    175  CB        32.7890   48.1820   29.7960 C.3   154  THR154      0.1784
    176  OG1       33.3810   47.8560   31.0590 O.3   154  THR154     -0.2211
    177  CG2       32.5100   49.6790   29.7590 C.3   154  THR154      0.0376
    178  N         30.9820   45.1640   30.4540 N.am  155  GLY155     -0.1942
    179  CA        31.1810   43.7330   30.5810 C.3   155  GLY155      0.2014
    180  C         30.7320   43.1290   31.8970 C.2   155  GLY155      0.2639
    181  O         30.1930   43.8050   32.7710 O.2   155  GLY155     -0.2714
    182  N         30.9610   41.8300   32.0250 N.am  156  LEU156     -0.1963
    183  CA        30.6000   41.0840   33.2190 C.3   156  LEU156      0.1728
    184  C         31.3600   41.6190   34.4240 C.2   156  LEU156      0.2617
    185  O         30.7540   42.0050   35.4230 O.2   156  LEU156     -0.2715
    186  CB        30.9260   39.6040   32.9970 C.3   156  LEU156      0.0311
    187  CG        30.9440   38.6570   34.1930 C.3   156  LEU156      0.0022
    188  CD1       29.6240   38.7330   34.9260 C.3   156  LEU156      0.0001
    189  CD2       31.2280   37.2550   33.7040 C.3   156  LEU156      0.0001
    190  N         32.6910   41.6410   34.3080 N.am  157  GLY157     -0.1940
    191  CA        33.5520   42.1240   35.3770 C.3   157  GLY157      0.2014
    192  C         33.1760   43.5110   35.8480 C.2   157  GLY157      0.2638
    193  O         33.1200   43.7850   37.0460 O.2   157  GLY157     -0.2714
    194  N         32.9280   44.3930   34.8920 N.am  158  ASN158     -0.1972
    195  CA        32.5320   45.7510   35.1970 C.3   158  ASN158      0.1688
    196  C         31.1590   45.7230   35.8460 C.2   158  ASN158      0.2292
    197  O         30.9710   46.2510   36.9340 O.2   158  ASN158     -0.2864
    198  CB        32.4740   46.5840   33.9180 C.3   158  ASN158      0.1181
    199  CG        31.9530   47.9880   34.1640 C.2   158  ASN158      0.2629
    200  OD1       32.5620   48.7630   34.9010 O.2   158  ASN158     -0.2716
    201  ND2       30.8180   48.3200   33.5520 N.am  158  ASN158     -0.0877
    202  N         29.6100   43.6430   37.5140 N.3   160  ILE160     -0.1245
    203  CA        29.6830   43.1820   38.8940 C.3   160  ILE160      0.1561
    204  C         30.2330   44.2940   39.7910 C.2   160  ILE160      0.2260
    205  O         29.5330   44.7960   40.6760 O.2   160  ILE160     -0.2867
    206  CB        30.6000   41.9310   39.0270 C.3   160  ILE160      0.0252
    207  CG1       29.9690   40.7250   38.3220 C.3   160  ILE160      0.0019
    208  CG2       30.8340   41.6090   40.5010 C.3   160  ILE160      0.0019
    209  CD1       30.8410   39.4510   38.3670 C.3   160  ILE160      0.0001
@<TRIPOS>BOND
     1    54    53    1
     2    48    49    1
     3    53    55    1
     4    53    52    1
     5    69    68   ar
     6    69    67   ar
     7    68    66   ar
     8    49    52    1
     9    49    50    1
    10    67    65   ar
    11    66    63   ar
    12    50    51    2
    13    65    63   ar
    14    65    64   ar
    15    46    45    2
    16    63    61   ar
    17    47    44    1
    18    44    45    1
    19    44    43    1
    20    64    62   ar
    21    61    62   ar
    22    61    60    1
    23    39    38    2
    24    56    57    1
    25    34    32    1
    26    43    38   am
    27    38    37    1
    28    42    40    1
    29    60    57    1
    30    35    33    1
    31    31    30    2
    32    57    58    1
    33    80    78    1
    34    32    33    1
    35    32    29    1
    36    40    37    1
    37    40    41    1
    38    37    36    1
    39    30    29    1
    40    78    79    1
    41    78    77    2
    42    29    28    1
    43    58    70   am
    44    58    59    2
    45    70    71    1
    46    77    76    1
    47    74    71    1
    48    74    75    1
    49   169   168    1
    50    28    25   am
    51    71    72    1
    52    91    90    2
    53    76    75    1
    54   166   165    1
    55   166   167    1
    56    26    25    2
    57    21    20    1
    58   165   164    1
    59    90    89    1
    60    90    92   am
    61    25    24    1
    62   168   167    2
    63   168   170    1
    64    89    86    1
    65    19    18    2
    66    72    73    2
    67    72    81   am
    68   160   161    1
    69    18    17    1
    70    20    17    1
    71    20    22    1
    72   164   161    1
    73    27    24    1
    74    24    23    1
    75    81    82    1
    76    86    85    1
    77    86    87    1
    78   161   162    1
    79    85    83   am
    80    17    16    1
    81   111   110    1
    82   155   154    2
    83    87    93   am
    84    87    88    2
    85    93    94    1
    86    82    83    1
    87    83    84    2
    88   154   153    1
    89   162   163    2
    90   110   112    1
    91   110   107    1
    92    16    14   am
    93   174   173    2
    94    94    97    1
    95    94    95    1
    96    15    14    2
    97    97    98    1
    98   172   173    1
    99   172   175    1
   100   172   171    1
   101   173   178   am
   102    98   100    1
   103    98    99    1
   104    14    13    1
   105   177   175    1
   106   175   176    1
   107   156   153    1
   108   156   157    1
   109   107   106    1
   110   107   108    1
   111   153   152    1
   112    95    96    2
   113    95   101   am
   114   159   157    1
   115   178   179    1
   116   179   180    1
   117   157   158    1
   118   101   102    1
   119    13    12    1
   120   108   109    2
   121   108   113   am
   122   180   182   am
   123   180   181    2
   124   182   183    1
   125   131   129   ar
   126   131   130   ar
   127   113   114    1
   128   103   102    1
   129   103   104    2
   130   102   105    1
   131   129   127   ar
   132   186   183    1
   133   186   187    1
   134   130   128   ar
   135     4     3    2
   136   183   184    1
   137   118   120    1
   138   118   117    1
   139     3     2    1
   140   114   117    1
   141   114   115    1
   142   201   199   am
   143   189   187    1
   144   127   126   ar
   145   198   199    1
   146   198   195    1
   147     1     2    1
   148   117   119    1
   149   199   200    2
   150   187   188    1
   151   190   184   am
   152   190   191    1
   153   128   126   ar
   154   184   185    2
   155   115   116    2
   156     2     5    1
   157   126   125    1
   158   194   195    1
   159   194   192   am
   160   195   196    1
   161   191   192    1
   162   147   146    2
   163     5     6    1
   164   196   197    2
   165   192   193    2
   166   121   122    1
   167   125   122    1
   168     8     6   ar
   169     8    10   ar
   170     6     7   ar
   171   146   145    1
   172   122   123    1
   173    10    11   ar
   174   148   145    1
   175   148   149    1
   176     7     9   ar
   177   145   144    1
   178   151   149    1
   179   202   203    1
   180    11     9   ar
   181   150   149    1
   182   138   132    1
   183   138   137    1
   184   123   132   am
   185   123   124    2
   186   207   209    1
   187   207   206    1
   188   132   133    1
   189   137   136    1
   190   203   206    1
   191   203   204    1
   192   206   208    1
   193   204   205    2
   194   133   136    1
   195   133   134    1
   196   134   135    2
   197   139   140    1
   198   140   143    1
   199   140   141    1
   200   141   142    2
