@<TRIPOS>MOLECULE
tmp/2c3iB00.pdb
 145 133 0 0 0
SMALL
GASTEIGER

@<TRIPOS>ATOM
      1  N         32.3180   46.5080   -3.7730 N.3     8  LEU8       -0.1231
      2  CA        30.9330   46.6920   -4.2440 C.3     8  LEU8        0.1693
      3  C         30.8110   47.9630   -5.0190 C.2     8  LEU8        0.2592
      4  O         29.9980   48.0630   -5.9390 O.2     8  LEU8       -0.2718
      5  CB        29.9690   46.6610   -3.0820 C.3     8  LEU8        0.0284
      6  CG        30.0590   45.3620   -2.2670 C.3     8  LEU8        0.0019
      7  CD1       29.1060   45.3660   -1.1000 C.3     8  LEU8        0.0001
      8  CD2       29.7670   44.1740   -3.1100 C.3     8  LEU8        0.0001
      9  N         31.6280   48.9460   -4.6860 N.am    9  GLY9       -0.1957
     10  CA        31.5490   50.2360   -5.3520 C.3     9  GLY9        0.1869
     11  C         32.3660   51.2850   -4.6420 C.2     9  GLY9        0.2309
     12  O         32.8250   51.0980   -3.5080 O.2     9  GLY9       -0.2863
     13  N         31.4120   58.7720   -1.3980 N.3    13  PHE13      -0.1241
     14  CA        31.2400   58.1370   -0.0950 C.3    13  PHE13       0.1605
     15  C         32.4280   57.2800    0.3860 C.2    13  PHE13       0.2264
     16  O         32.3540   56.7150    1.4710 O.2    13  PHE13      -0.2867
     17  CB        30.0060   57.2040   -0.1300 C.3    13  PHE13       0.0534
     18  CG        29.9950   56.2510   -1.2820 C.ar   13  PHE13      -0.0203
     19  CD1       30.5990   54.9980   -1.1740 C.ar   13  PHE13      -0.0042
     20  CD2       29.4150   56.6090   -2.4840 C.ar   13  PHE13      -0.0042
     21  CE1       30.6200   54.1300   -2.2390 C.ar   13  PHE13      -0.0003
     22  CE2       29.4160   55.7250   -3.5780 C.ar   13  PHE13      -0.0003
     23  CZ        30.0140   54.4910   -3.4440 C.ar   13  PHE13      -0.0000
     24  N         33.4800   50.7390   -0.7510 N.3    16  VAL16      -0.1245
     25  CA        32.6640   49.8160   -0.0020 C.3    16  VAL16       0.1561
     26  C         32.9010   48.3810   -0.5090 C.2    16  VAL16       0.2260
     27  O         32.7350   48.1260   -1.7090 O.2    16  VAL16      -0.2867
     28  CB        31.1430   50.1500   -0.1050 C.3    16  VAL16       0.0252
     29  CG1       30.3640   49.1780    0.6890 C.3    16  VAL16       0.0019
     30  CG2       30.8370   51.5920    0.3680 C.3    16  VAL16       0.0019
     31  N         29.1450   44.9400    5.2300 N.3    29  ALA29      -0.1245
     32  CA        29.7930   45.8240    4.2980 C.3    29  ALA29       0.1562
     33  C         30.8690   46.6020    5.0490 C.2    29  ALA29       0.2260
     34  O         30.6980   47.0210    6.1880 O.2    29  ALA29      -0.2867
     35  CB        28.7710   46.7770    3.6260 C.3    29  ALA29       0.0290
     36  N         33.4340   49.7820    4.7380 N.3    31  LYS31      -0.1245
     37  CA        33.4650   51.0610    4.0870 C.3    31  LYS31       0.1561
     38  C         34.6590   51.8800    4.5530 C.2    31  LYS31       0.2260
     39  O         34.8190   52.1960    5.7390 O.2    31  LYS31      -0.2867
     40  CB        32.1750   51.8460    4.3510 C.3    31  LYS31       0.0271
     41  CG        32.1650   53.2390    3.6930 C.3    31  LYS31       0.0035
     42  CD        30.7080   53.7470    3.4970 C.3    31  LYS31       0.0206
     43  CE        30.4140   55.0720    4.1870 C.3    31  LYS31       0.1093
     44  NZ        29.0980   55.7590    3.6140 N.3    31  LYS31      -0.1314
     45  N         29.3950   60.8560    9.7890 N.3    50  GLU50      -0.1245
     46  CA        28.6450   59.6310    9.5210 C.3    50  GLU50       0.1567
     47  C         28.6180   58.7110   10.7460 C.2    50  GLU50       0.2260
     48  O         27.5980   58.0940   11.0180 O.2    50  GLU50      -0.2867
     49  CB        29.1120   58.8580    8.2600 C.3    50  GLU50       0.0388
     50  CG        28.2050   57.6330    8.0300 C.3    50  GLU50       0.1160
     51  CD        28.2810   56.9260    6.6130 C.2    50  GLU50       0.3649
     52  OE1       29.4030   57.0180    5.9920 O.co2  50  GLU50      -0.2457
     53  OE2       27.2200   56.2690    6.2090 O.co2  50  GLU50      -0.2457
     54  N         20.3940   51.0000    7.6560 N.3    65  ILE65      -0.1245
     55  CA        21.5140   50.0260    7.7050 C.3    65  ILE65       0.1561
     56  C         22.3470   50.3810    8.9440 C.2    65  ILE65       0.2260
     57  O         22.7610   51.5440    9.1210 O.2    65  ILE65      -0.2867
     58  CB        22.3950   50.0700    6.4350 C.3    65  ILE65       0.0252
     59  CG1       21.7720   49.3080    5.2660 C.3    65  ILE65       0.0019
     60  CG2       23.7690   49.4370    6.6560 C.3    65  ILE65       0.0019
     61  CD1       21.5020   47.8310    5.5070 C.3    65  ILE65       0.0001
     62  N         29.2660   47.8620    8.5070 N.3    81  LEU81      -0.1231
     63  CA        27.8180   48.0550    8.3960 C.3    81  LEU81       0.1693
     64  C         27.1270   46.7330    8.0770 C.2    81  LEU81       0.2592
     65  O         27.7700   45.8190    7.5270 O.2    81  LEU81      -0.2718
     66  CB        27.5230   49.0820    7.2730 C.3    81  LEU81       0.0284
     67  CG        28.1480   50.4490    7.5610 C.3    81  LEU81       0.0019
     68  CD1       28.7610   51.0400    6.3540 C.3    81  LEU81       0.0001
     69  CD2       27.1370   51.4150    8.1490 C.3    81  LEU81       0.0001
     70  N         25.8240   46.6320    8.3880 N.am   82  GLU82      -0.1966
     71  CA        25.0290   45.4620    7.9880 C.3    82  GLU82       0.1733
     72  C         24.9980   45.3590    6.5010 C.2    82  GLU82       0.2616
     73  O         24.9970   46.3750    5.8100 O.2    82  GLU82      -0.2715
     74  CB        23.5530   45.5550    8.3770 C.3    82  GLU82       0.0429
     75  CG        23.2770   45.7370    9.7940 C.3    82  GLU82       0.1163
     76  CD        21.7460   45.8270   10.0600 C.2    82  GLU82       0.3649
     77  OE1       21.0690   46.8230    9.5790 O.co2  82  GLU82      -0.2457
     78  OE2       21.2700   44.9050   10.8140 O.co2  82  GLU82      -0.2457
     79  N         24.9120   44.1370    6.0150 N.am   83  ARG83      -0.1977
     80  CA        24.7350   43.8920    4.5940 C.3    83  ARG83       0.1597
     81  C         23.6080   42.8700    4.4350 C.2    83  ARG83       0.2287
     82  O         23.7590   41.7040    4.8010 O.2    83  ARG83      -0.2864
     83  CB        26.0180   43.3570    3.9520 C.3    83  ARG83       0.0334
     84  CG        25.8800   43.0410    2.4810 C.3    83  ARG83       0.0492
     85  CD        27.2400   42.7820    1.8430 C.3    83  ARG83       0.2205
     86  NE        27.9670   41.6690    2.4740 N.pl3  83  ARG83      -0.0865
     87  CZ        27.7680   40.3880    2.1820 C.cat  83  ARG83       0.5346
     88  NH1       26.9090   40.0280    1.2500 N.pl3  83  ARG83       0.1354
     89  NH2       28.4630   39.4540    2.8110 N.pl3  83  ARG83       0.1354
     90  N         20.1810   41.6050   -2.1900 N.3    87  VAL87      -0.1245
     91  CA        20.3120   43.0270   -1.8640 C.3    87  VAL87       0.1561
     92  C         20.4070   43.6140   -3.2620 C.2    87  VAL87       0.2260
     93  O         21.1550   43.1100   -4.0760 O.2    87  VAL87      -0.2867
     94  CB        21.4000   43.5530   -0.9600 C.3    87  VAL87       0.0252
     95  CG1       22.7140   43.6830   -1.6660 C.3    87  VAL87       0.0019
     96  CG2       20.9610   44.9480   -0.4940 C.3    87  VAL87       0.0019
     97  N         20.2400   47.8360   -4.8980 N.3    89  ASP89      -0.1239
     98  CA        19.8580   49.2010   -4.6430 C.3    89  ASP89       0.1674
     99  C         18.6470   49.6210   -5.4890 C.2    89  ASP89       0.2266
    100  O         18.3860   49.0900   -6.5830 O.2    89  ASP89      -0.2867
    101  CB        21.0270   50.1740   -4.6580 C.3    89  ASP89       0.1410
    102  CG        21.5130   50.5230   -6.0480 C.2    89  ASP89       0.3668
    103  OD1       22.7490   50.4630   -6.2840 O.co2  89  ASP89      -0.2456
    104  OD2       20.6900   50.9180   -6.8890 O.co2  89  ASP89      -0.2456
    105  N         19.5990   55.8940   -5.0740 N.3   132  GLU132     -0.1231
    106  CA        20.9500   55.3060   -4.9640 C.3   132  GLU132      0.1699
    107  C         21.3240   55.0240   -3.5120 C.2   132  GLU132      0.2592
    108  O         22.2260   54.2280   -3.2410 O.2   132  GLU132     -0.2718
    109  CB        22.0080   56.2390   -5.5440 C.3   132  GLU132      0.0402
    110  CG        21.8320   56.6960   -6.9930 C.3   132  GLU132      0.1161
    111  CD        22.9440   57.6840   -7.3790 C.2   132  GLU132      0.3649
    112  OE1       24.1360   57.2220   -7.3930 O.co2 132  GLU132     -0.2457
    113  OE2       22.6400   58.8920   -7.6580 O.co2 132  GLU132     -0.2457
    114  N         20.6580   55.7120   -2.5750 N.am  133  ASN133     -0.1974
    115  CA        20.9060   55.5540   -1.1490 C.3   133  ASN133      0.1688
    116  C         19.9110   54.7040   -0.3900 C.2   133  ASN133      0.2292
    117  O         19.8260   54.7840    0.8180 O.2   133  ASN133     -0.2864
    118  CB        21.0740   56.9290   -0.5120 C.3   133  ASN133      0.1181
    119  CG        22.3940   57.5380   -0.8570 C.2   133  ASN133      0.2629
    120  OD1       23.2880   56.8050   -1.2290 O.2   133  ASN133     -0.2716
    121  ND2       22.5210   58.8280   -0.7920 N.am  133  ASN133     -0.0877
    122  N         18.6090   50.6130   -0.1800 N.3   135  LEU135     -0.1245
    123  CA        18.7940   49.2230   -0.4950 C.3   135  LEU135      0.1561
    124  C         17.5020   48.4780   -0.3090 C.2   135  LEU135      0.2260
    125  O         16.7170   48.7620    0.6270 O.2   135  LEU135     -0.2867
    126  CB        19.8500   48.6040    0.3930 C.3   135  LEU135      0.0270
    127  CG        21.2720   49.1600    0.3780 C.3   135  LEU135      0.0019
    128  CD1       22.1170   48.2270    1.2730 C.3   135  LEU135      0.0001
    129  CD2       21.8580   49.2530   -1.0160 C.3   135  LEU135      0.0001
    130  N         20.9370   54.0400    3.3900 N.3   146  ILE146     -0.1231
    131  CA        22.3910   54.1160    3.5390 C.3   146  ILE146      0.1692
    132  C         22.9410   55.4830    3.2590 C.2   146  ILE146      0.2592
    133  O         22.2780   56.3460    2.7300 O.2   146  ILE146     -0.2718
    134  CB        23.1230   53.1150    2.5970 C.3   146  ILE146      0.0266
    135  CG1       22.7480   53.3690    1.1410 C.3   146  ILE146      0.0019
    136  CG2       22.7360   51.6850    2.9910 C.3   146  ILE146      0.0020
    137  CD1       23.5500   52.5850    0.1460 C.3   146  ILE146      0.0001
    138  N         24.2190   55.6350    3.5890 N.am  147  ASP147     -0.1974
    139  CA        25.0560   56.7880    3.3150 C.3   147  ASP147      0.1709
    140  C         24.7000   58.1350    4.0040 C.2   147  ASP147      0.2293
    141  O         24.1620   59.0540    3.3800 O.2   147  ASP147     -0.2864
    142  CB        25.3370   57.0130    1.8200 C.3   147  ASP147      0.1436
    143  CG        26.5730   57.9970    1.5990 C.2   147  ASP147      0.3671
    144  OD1       27.3750   58.2810    2.5580 O.co2 147  ASP147     -0.2456
    145  OD2       26.7150   58.5010    0.4530 O.co2 147  ASP147     -0.2456
@<TRIPOS>BOND
     1   113   111   ar
     2   112   111   ar
     3   111   110    1
     4   110   109    1
     5   104   102   ar
     6   100    99    2
     7   103   102   ar
     8   102   101    1
     9     4     3    2
    10   109   106    1
    11    99    98    1
    12    10     9    1
    13    10    11    1
    14   105   106    1
    15     3     9   am
    16     3     2    1
    17   106   107    1
    18    97    98    1
    19   101    98    1
    20    11    12    2
    21     2     1    1
    22     2     5    1
    23    93    92    2
    24    22    23   ar
    25    22    20   ar
    26   107   108    2
    27   107   114   am
    28    23    21   ar
    29    92    91    1
    30     8     6    1
    31     5     6    1
    32   114   115    1
    33    20    18   ar
    34     6     7    1
    35    21    19   ar
    36    90    91    1
    37    91    94    1
    38    27    26    2
    39    95    94    1
    40    13    14    1
    41    18    19   ar
    42    18    17    1
    43   120   119    2
    44   115   118    1
    45   115   116    1
    46   129   127    1
    47    94    96    1
    48   119   121   am
    49   119   118    1
    50    24    25    1
    51    26    25    1
    52   123   124    1
    53   123   122    1
    54   123   126    1
    55   116   117    2
    56   124   125    2
    57    17    14    1
    58    28    25    1
    59    28    30    1
    60    28    29    1
    61    14    15    1
    62   137   135    1
    63   127   126    1
    64   127   128    1
    65    15    16    2
    66   145   143   ar
    67   135   134    1
    68    88    87    1
    69   143   142    1
    70   143   144   ar
    71   142   139    1
    72    85    86    1
    73    85    84    1
    74    87    86    2
    75    87    89    1
    76    84    83    1
    77   134   136    1
    78   134   131    1
    79   133   132    2
    80   132   131    1
    81   132   138   am
    82   139   138    1
    83   139   140    1
    84   141   140    2
    85   130   131    1
    86    42    41    1
    87    42    43    1
    88    44    43    1
    89    35    32    1
    90    41    40    1
    91    83    80    1
    92    37    40    1
    93    37    38    1
    94    37    36    1
    95    32    33    1
    96    32    31    1
    97    81    80    1
    98    81    82    2
    99    38    39    2
   100    80    79    1
   101    33    34    2
   102    59    61    1
   103    59    58    1
   104    73    72    2
   105    52    51   ar
   106    79    72   am
   107    53    51   ar
   108    68    67    1
   109    58    60    1
   110    58    55    1
   111    72    71    1
   112    51    50    1
   113    66    67    1
   114    66    63    1
   115    65    64    2
   116    67    69    1
   117    54    55    1
   118    55    56    1
   119    71    74    1
   120    71    70    1
   121    50    49    1
   122    64    70   am
   123    64    63    1
   124    49    46    1
   125    74    75    1
   126    63    62    1
   127    56    57    2
   128    46    45    1
   129    46    47    1
   130    77    76   ar
   131    75    76    1
   132    76    78   ar
   133    47    48    2
