@<TRIPOS>MOLECULE
tmp/2c3kA00.pdb
 164 153 0 0 0
SMALL
GASTEIGER

@<TRIPOS>ATOM
      1  N          2.5580  -10.0280   22.4480 N.3    10  LEU10      -0.1245
      2  CA         1.9980   -9.0000   21.5770 C.3    10  LEU10       0.1561
      3  C          2.0230   -9.4140   20.1170 C.2    10  LEU10       0.2260
      4  O          1.1220   -9.0580   19.3510 O.2    10  LEU10      -0.2867
      5  CB         2.7580   -7.6820   21.7600 C.3    10  LEU10       0.0270
      6  CG         2.1260   -6.4960   22.5040 C.3    10  LEU10       0.0019
      7  CD1        1.5020   -6.8840   23.8460 C.3    10  LEU10       0.0001
      8  CD2        3.1640   -5.3970   22.6910 C.3    10  LEU10       0.0001
      9  N          7.3130  -10.4810   20.3580 N.3    18  VAL18      -0.1245
     10  CA         7.2400   -9.1730   20.9970 C.3    18  VAL18       0.1561
     11  C          6.4290   -9.3080   22.3060 C.2    18  VAL18       0.2260
     12  O          5.3150   -9.8610   22.3180 O.2    18  VAL18      -0.2867
     13  CB         6.6050   -8.1050   20.0450 C.3    18  VAL18       0.0252
     14  CG1        6.8150   -6.6830   20.5790 C.3    18  VAL18       0.0019
     15  CG2        7.1720   -8.2390   18.6360 C.3    18  VAL18       0.0019
     16  N          7.9850   -2.1290   24.5970 N.3    31  ALA31      -0.1245
     17  CA         7.8770   -3.3720   23.8300 C.3    31  ALA31       0.1562
     18  C          9.2540   -3.9990   23.6650 C.2    31  ALA31       0.2260
     19  O         10.1970   -3.3430   23.2550 O.2    31  ALA31      -0.2867
     20  CB         7.2100   -3.1190   22.4970 C.3    31  ALA31       0.0290
     21  N         11.2600   -7.1760   21.8990 N.3    33  LYS33      -0.1245
     22  CA        11.3240   -8.2820   20.9700 C.3    33  LYS33       0.1561
     23  C         12.4220   -9.2180   21.4630 C.2    33  LYS33       0.2260
     24  O         13.5460   -8.7740   21.7650 O.2    33  LYS33      -0.2867
     25  CB        11.5940   -7.7910   19.5400 C.3    33  LYS33       0.0271
     26  CG        10.8230   -8.5560   18.4660 C.3    33  LYS33       0.0035
     27  CD        11.7090   -9.4610   17.6140 C.3    33  LYS33       0.0206
     28  CE        12.0430   -8.8180   16.2460 C.3    33  LYS33       0.1093
     29  NZ        13.2360   -9.4200   15.5660 N.3    33  LYS33      -0.1314
     30  N         19.3250   -5.6160   12.0710 N.3    47  GLU47      -0.1245
     31  CA        18.1570   -4.9810   12.7010 C.3    47  GLU47       0.1567
     32  C         18.5570   -4.0130   13.8480 C.2    47  GLU47       0.2260
     33  O         18.0150   -2.9090   13.9840 O.2    47  GLU47      -0.2867
     34  CB        17.1700   -6.0650   13.1780 C.3    47  GLU47       0.0388
     35  CG        15.8220   -5.5900   13.7230 C.3    47  GLU47       0.1160
     36  CD        14.8000   -6.7270   13.9000 C.2    47  GLU47       0.3649
     37  OE1       15.2110   -7.8850   14.1650 O.co2  47  GLU47      -0.2457
     38  OE2       13.5650   -6.4870   13.7610 O.co2  47  GLU47      -0.2457
     39  N         18.3020    0.0490   13.6020 N.3    51  ASN51      -0.1240
     40  CA        17.5060    0.7120   14.6420 C.3    51  ASN51       0.1653
     41  C         18.2430    1.8550   15.3310 C.2    51  ASN51       0.2266
     42  O         17.6930    2.9240   15.5040 O.2    51  ASN51      -0.2867
     43  CB        16.9960   -0.2910   15.6670 C.3    51  ASN51       0.1155
     44  CG        15.5180   -0.6800   15.4590 C.2    51  ASN51       0.2627
     45  OD1       14.5980    0.1620   15.5780 O.2    51  ASN51      -0.2716
     46  ND2       15.2810   -1.9690   15.1870 N.am   51  ASN51      -0.0877
     47  N          8.9180    3.6840   14.9150 N.3    60  VAL60      -0.1245
     48  CA         8.9400    3.1130   16.2520 C.3    60  VAL60       0.1561
     49  C         10.3290    3.2210   16.8550 C.2    60  VAL60       0.2260
     50  O         11.2850    2.7740   16.2690 O.2    60  VAL60      -0.2867
     51  CB         8.4730    1.6520   16.2490 C.3    60  VAL60       0.0252
     52  CG1        8.6350    1.0400   17.6450 C.3    60  VAL60       0.0019
     53  CG2        7.0370    1.5560   15.7800 C.3    60  VAL60       0.0019
     54  N         15.3890   -6.5510   22.4190 N.3    74  LEU74      -0.1245
     55  CA        15.2600   -5.2960   21.6720 C.3    74  LEU74       0.1561
     56  C         14.2790   -4.3830   22.3930 C.2    74  LEU74       0.2260
     57  O         13.0630   -4.5830   22.3620 O.2    74  LEU74      -0.2867
     58  CB        14.7920   -5.5570   20.2340 C.3    74  LEU74       0.0270
     59  CG        15.7200   -5.8730   19.0480 C.3    74  LEU74       0.0019
     60  CD1       16.3170   -4.6030   18.4980 C.3    74  LEU74       0.0001
     61  CD2       16.7960   -6.9090   19.3430 C.3    74  LEU74       0.0001
     62  N         12.1590   -1.4090   22.6110 N.3    76  LEU76      -0.1231
     63  CA        11.4840   -0.5850   21.5920 C.3    76  LEU76       0.1693
     64  C         10.2270    0.1270   22.1010 C.2    76  LEU76       0.2592
     65  O          9.5380   -0.3850   22.9760 O.2    76  LEU76      -0.2718
     66  CB        11.1130   -1.4310   20.3860 C.3    76  LEU76       0.0284
     67  CG        12.2580   -2.0320   19.5970 C.3    76  LEU76       0.0019
     68  CD1       11.8360   -3.4080   19.1000 C.3    76  LEU76       0.0001
     69  CD2       12.7090   -1.0880   18.4830 C.3    76  LEU76       0.0001
     70  N          9.9430    1.3120   21.5530 N.am   77  GLU77      -0.1966
     71  CA         8.7320    2.0750   21.8830 C.3    77  GLU77       0.1733
     72  C          7.5070    1.1850   21.7540 C.2    77  GLU77       0.2616
     73  O          7.4080    0.3970   20.8330 O.2    77  GLU77      -0.2715
     74  CB         8.5970    3.2900   20.9630 C.3    77  GLU77       0.0429
     75  CG         7.3830    4.1870   21.1840 C.3    77  GLU77       0.1163
     76  CD         7.2610    5.2950   20.1270 C.2    77  GLU77       0.3649
     77  OE1        6.3710    6.1540   20.2720 O.co2  77  GLU77      -0.2457
     78  OE2        8.0420    5.3230   19.1370 O.co2  77  GLU77      -0.2457
     79  N          6.5950    1.2910   22.7040 N.am   78  TYR78      -0.1960
     80  CA         5.3770    0.5180   22.6830 C.3    78  TYR78       0.1771
     81  C          4.2600    1.3560   22.1000 C.2    78  TYR78       0.2620
     82  O          4.1420    2.5320   22.3800 O.2    78  TYR78      -0.2715
     83  CB         5.0260    0.0670   24.1050 C.3    78  TYR78       0.0574
     84  CG         3.6060   -0.4210   24.2730 C.ar   78  TYR78      -0.0198
     85  CD1        3.2220   -1.6810   23.7950 C.ar   78  TYR78      -0.0009
     86  CD2        2.6400    0.3810   24.8980 C.ar   78  TYR78      -0.0009
     87  CE1        1.9320   -2.1360   23.9400 C.ar   78  TYR78       0.0417
     88  CE2        1.3300   -0.0810   25.0500 C.ar   78  TYR78       0.0417
     89  CZ         0.9880   -1.3440   24.5590 C.ar   78  TYR78       0.1957
     90  OH        -0.2810   -1.8800   24.6710 O.3    78  TYR78      -0.2866
     91  N          3.4130    0.7410   21.3000 N.am   79  CYS79      -0.1954
     92  CA         2.3190    1.4830   20.7080 C.3    79  CYS79       0.1843
     93  C          1.0480    0.8140   21.1420 C.2    79  CYS79       0.2626
     94  O          0.7730   -0.3310   20.7430 O.2    79  CYS79      -0.2714
     95  CB         2.4430    1.5430   19.1620 C.3    79  CYS79       0.0997
     96  SG         4.0060    2.2340   18.5670 S.3    79  CYS79      -0.0797
     97  N          0.2890    1.5250   21.9730 N.am   80  SER80      -0.1950
     98  CA        -0.9310    0.9760   22.5380 C.3    80  SER80       0.1924
     99  C         -2.0660    0.9170   21.5250 C.2    80  SER80       0.2314
    100  O         -3.0510    0.2330   21.7850 O.2    80  SER80      -0.2863
    101  CB        -1.3530    1.7150   23.8180 C.3    80  SER80       0.2116
    102  OG        -1.6800    3.0770   23.5580 O.3    80  SER80      -0.2180
    103  N         -1.9860   -0.4880   18.4550 N.3    82  GLY82      -0.1210
    104  CA        -1.9940   -1.7260   17.6990 C.3    82  GLY82       0.1956
    105  C         -1.5300   -1.5960   16.2340 C.2    82  GLY82       0.2611
    106  O         -0.8680   -0.6320   15.8180 O.2    82  GLY82      -0.2717
    107  N         -1.8990   -2.5930   15.4460 N.am   83  GLU83      -0.1979
    108  CA        -1.5360   -2.6460   14.0610 C.3    83  GLU83       0.1602
    109  C         -2.5990   -1.9440   13.2390 C.2    83  GLU83       0.2287
    110  O         -3.7940   -2.0450   13.5330 O.2    83  GLU83      -0.2864
    111  CB        -1.4220   -4.1000   13.6020 C.3    83  GLU83       0.0415
    112  CG        -0.4930   -4.9720   14.4490 C.3    83  GLU83       0.1163
    113  CD        -0.1950   -6.3100   13.8030 C.2    83  GLU83       0.3649
    114  OE1        0.8620   -6.8980   14.1460 O.co2  83  GLU83      -0.2457
    115  OE2       -0.9880   -6.7690   12.9260 O.co2  83  GLU83      -0.2457
    116  N         -5.7440   -3.7850   11.9910 N.3    86  ASP86      -0.1239
    117  CA        -6.9790   -3.9370   12.7600 C.3    86  ASP86       0.1674
    118  C         -7.9100   -2.7530   12.6610 C.2    86  ASP86       0.2266
    119  O         -9.0660   -2.8360   13.0820 O.2    86  ASP86      -0.2867
    120  CB        -6.7410   -4.3520   14.2180 C.3    86  ASP86       0.1410
    121  CG        -6.0700   -5.7260   14.3270 C.2    86  ASP86       0.3668
    122  OD1       -5.1250   -5.8410   15.1460 O.co2  86  ASP86      -0.2456
    123  OD2       -6.3830   -6.7270   13.6180 O.co2  86  ASP86      -0.2456
    124  N          2.0190    0.6500   13.0620 N.3   129  LEU129     -0.1245
    125  CA         1.4230    0.7090   14.3970 C.3   129  LEU129      0.1561
    126  C          0.8650    2.0580   14.7880 C.2   129  LEU129      0.2260
    127  O          1.4200    3.1050   14.4510 O.2   129  LEU129     -0.2867
    128  CB         2.4280    0.2490   15.4510 C.3   129  LEU129      0.0270
    129  CG         2.9810   -1.1610   15.2110 C.3   129  LEU129      0.0019
    130  CD1        4.1710   -1.4300   16.1650 C.3   129  LEU129      0.0001
    131  CD2        1.8840   -2.2360   15.2820 C.3   129  LEU129      0.0001
    132  N          6.3330    3.2800   11.8980 N.3   138  ILE138     -0.1231
    133  CA         6.7600    2.1220   11.0760 C.3   138  ILE138      0.1692
    134  C          7.5590    1.2360   11.9890 C.2   138  ILE138      0.2593
    135  O          8.4630    1.7050   12.7080 O.2   138  ILE138     -0.2718
    136  CB         7.6120    2.5650    9.8030 C.3   138  ILE138      0.0266
    137  CG1        6.7990    3.4970    8.8910 C.3   138  ILE138      0.0019
    138  CG2        8.1540    1.3780    8.9960 C.3   138  ILE138      0.0020
    139  CD1        7.6380    4.2920    7.9040 C.3   138  ILE138      0.0001
    140  N          7.2290   -0.0470   11.9730 N.am  139  SER139     -0.1938
    141  CA         7.8760   -0.9910   12.8700 C.3   139  SER139      0.2055
    142  C          8.4420   -2.1370   12.0510 C.2   139  SER139      0.2643
    143  O          8.1750   -2.2310   10.8770 O.2   139  SER139     -0.2714
    144  CB         6.8770   -1.4960   13.9340 C.3   139  SER139      0.2130
    145  OG         6.1840   -2.7010   13.5700 O.3   139  SER139     -0.2179
    146  N          9.1980   -2.9970   12.7350 N.am  140  ASP140     -0.1957
    147  CA         9.8340   -4.2030   12.2220 C.3   140  ASP140      0.1840
    148  C         10.8490   -3.9550   11.1230 C.2   140  ASP140      0.2622
    149  O         10.4860   -3.9690    9.9290 O.2   140  ASP140     -0.2715
    150  CB         8.8310   -5.2610   11.8000 C.3   140  ASP140      0.1450
    151  CG         9.4980   -6.5950   11.6040 C.2   140  ASP140      0.3671
    152  OD1        8.7930   -7.6190   11.3620 O.co2 140  ASP140     -0.2456
    153  OD2       10.7570   -6.6990   11.6880 O.co2 140  ASP140     -0.2456
    154  N         12.1070   -3.7520   11.5360 N.am  141  PHE141     -0.1974
    155  CA        13.2140   -3.5570   10.6020 C.3   141  PHE141      0.1639
    156  C         14.0520   -4.7830   10.3570 C.2   141  PHE141      0.2290
    157  O         15.1790   -4.6860    9.8720 O.2   141  PHE141     -0.2864
    158  CB        14.0710   -2.3500   10.9840 C.3   141  PHE141      0.0560
    159  CG        13.3520   -1.0440   10.7880 C.ar  141  PHE141     -0.0200
    160  CD1       12.5300   -0.5240   11.8210 C.ar  141  PHE141     -0.0042
    161  CD2       13.4560   -0.3570    9.5780 C.ar  141  PHE141     -0.0042
    162  CE1       11.8290    0.6940   11.6560 C.ar  141  PHE141     -0.0003
    163  CE2       12.7620    0.8540    9.3950 C.ar  141  PHE141     -0.0003
    164  CZ        11.9270    1.3950   10.4450 C.ar  141  PHE141     -0.0000
@<TRIPOS>BOND
     1   139   137    1
     2   137   136    1
     3   138   136    1
     4   163   161   ar
     5   163   164   ar
     6   161   159   ar
     7   136   133    1
     8   157   156    2
     9   149   148    2
    10   156   155    1
    11   164   162   ar
    12   155   158    1
    13   155   154    1
    14   159   158    1
    15   159   160   ar
    16   143   142    2
    17   133   132    1
    18   133   134    1
    19   148   154   am
    20   148   147    1
    21   152   151   ar
    22   151   153   ar
    23   151   150    1
    24   162   160   ar
    25   150   147    1
    26   140   134   am
    27   140   141    1
    28   134   135    2
    29   116   117    1
    30   142   146   am
    31   142   141    1
    32    30    31    1
    33   147   146    1
    34   118   117    1
    35   118   119    2
    36    31    34    1
    37    31    32    1
    38   117   120    1
    39   141   144    1
    40   115   113   ar
    41   124   125    1
    42    34    35    1
    43   109   110    2
    44   109   108    1
    45   145   144    1
    46   111   108    1
    47   111   112    1
    48    39    40    1
    49   123   121   ar
    50    35    36    1
    51    38    36   ar
    52   113   114   ar
    53   113   112    1
    54    32    33    2
    55    36    37   ar
    56   108   107    1
    57   120   121    1
    58   121   122   ar
    59   125   126    1
    60   125   128    1
    61   127   126    2
    62    40    41    1
    63    40    43    1
    64    47    48    1
    65    46    44   am
    66   129   131    1
    67   129   128    1
    68   129   130    1
    69    41    42    2
    70   107   105   am
    71    44    45    2
    72    44    43    1
    73    29    28    1
    74    53    51    1
    75   106   105    2
    76   105   104    1
    77    28    27    1
    78    51    48    1
    79    51    52    1
    80    48    49    1
    81    50    49    2
    82    27    26    1
    83   104   103    1
    84    26    25    1
    85    69    67    1
    86    60    59    1
    87    96    95    1
    88    15    13    1
    89    59    61    1
    90    59    58    1
    91    68    67    1
    92    78    76   ar
    93    95    92    1
    94     4     3    2
    95    25    22    1
    96    67    66    1
    97    13    14    1
    98    13    10    1
    99     3     2    1
   100    76    77   ar
   101    76    75    1
   102    58    55    1
   103     9    10    1
   104    66    63    1
   105    92    93    1
   106    92    91    1
   107    94    93    2
   108    73    72    2
   109    74    75    1
   110    74    71    1
   111    22    23    1
   112    22    21    1
   113    10    11    1
   114    93    97   am
   115    91    81   am
   116    23    24    2
   117    99   100    2
   118    99    98    1
   119    70    71    1
   120    70    64   am
   121     2     5    1
   122     2     1    1
   123    63    64    1
   124    63    62    1
   125    55    56    1
   126    55    54    1
   127    72    71    1
   128    72    79   am
   129     5     6    1
   130    97    98    1
   131    81    82    2
   132    81    80    1
   133    64    65    2
   134    11    12    2
   135    57    56    2
   136    20    17    1
   137     6     8    1
   138     6     7    1
   139    98   101    1
   140    80    79    1
   141    80    83    1
   142    19    18    2
   143   102   101    1
   144    18    17    1
   145    85    87   ar
   146    85    84   ar
   147    17    16    1
   148    87    89   ar
   149    83    84    1
   150    84    86   ar
   151    89    90    1
   152    89    88   ar
   153    86    88   ar
