@<TRIPOS>MOLECULE
tmp/2c3lA00.pdb
 124 116 0 0 0
SMALL
GASTEIGER

@<TRIPOS>ATOM
      1  N         18.0000   -7.4910    6.2370 N.3    14  LEU14      -0.1245
      2  CA        18.4740   -6.4200    7.0650 C.3    14  LEU14       0.1561
      3  C         18.6780   -6.9740    8.4540 C.2    14  LEU14       0.2260
      4  O         19.6200   -6.6160    9.1510 O.2    14  LEU14      -0.2867
      5  CB        17.4620   -5.2900    7.0500 C.3    14  LEU14       0.0270
      6  CG        17.9450   -3.9860    6.4400 C.3    14  LEU14       0.0019
      7  CD1       18.8370   -4.2410    5.2490 C.3    14  LEU14       0.0001
      8  CD2       16.7380   -3.1530    6.0920 C.3    14  LEU14       0.0001
      9  N         13.2920   -8.7030    8.0810 N.3    22  VAL22      -0.1245
     10  CA        13.1750   -7.3710    7.5160 C.3    22  VAL22       0.1561
     11  C         14.0860   -7.3210    6.2920 C.2    22  VAL22       0.2260
     12  O         15.2060   -7.8020    6.3350 O.2    22  VAL22      -0.2867
     13  CB        13.5610   -6.2990    8.5440 C.3    22  VAL22       0.0252
     14  CG1       13.4740   -4.9190    7.9460 C.3    22  VAL22       0.0019
     15  CG2       12.6390   -6.3590    9.7360 C.3    22  VAL22       0.0019
     16  N         12.5000   -0.3240    4.6650 N.3    35  ALA35      -0.1245
     17  CA        12.6030   -1.6300    5.2770 C.3    35  ALA35       0.1562
     18  C         11.2060   -2.0990    5.2850 C.2    35  ALA35       0.2260
     19  O         10.2850   -1.3330    5.5410 O.2    35  ALA35      -0.2867
     20  CB        13.1510   -1.5540    6.6700 C.3    35  ALA35       0.0290
     21  N          9.1780   -5.0700    6.9730 N.3    37  LYS37      -0.1245
     22  CA         9.2920   -6.0600    8.0330 C.3    37  LYS37       0.1561
     23  C          8.2420   -7.0960    7.6930 C.2    37  LYS37       0.2260
     24  O          7.0790   -6.7320    7.4620 O.2    37  LYS37      -0.2867
     25  CB         9.0510   -5.3950    9.4040 C.3    37  LYS37       0.0271
     26  CG         8.9610   -6.3560   10.5770 C.3    37  LYS37       0.0035
     27  CD         8.5050   -5.6820   11.8460 C.3    37  LYS37       0.0206
     28  CE         8.5640   -6.6790   12.9910 C.3    37  LYS37       0.1093
     29  NZ         8.3520   -6.0800   14.3440 N.3    37  LYS37      -0.1314
     30  N         11.0320    5.6440   14.1650 N.3    60  VAL60      -0.1245
     31  CA        10.9660    5.0660   12.8460 C.3    60  VAL60       0.1561
     32  C          9.5710    5.2250   12.2090 C.2    60  VAL60       0.2260
     33  O          8.5460    4.8120   12.7710 O.2    60  VAL60      -0.2867
     34  CB        11.3000    3.5770   12.9280 C.3    60  VAL60       0.0252
     35  CG1       11.1310    2.9000   11.5530 C.3    60  VAL60       0.0019
     36  CG2       12.7050    3.3920   13.4010 C.3    60  VAL60       0.0019
     37  N          8.3750    0.4690    6.5760 N.3    76  LEU76      -0.1231
     38  CA         8.9600    1.3090    7.6300 C.3    76  LEU76       0.1693
     39  C         10.1340    2.0750    7.0970 C.2    76  LEU76       0.2592
     40  O         10.7110    1.7130    6.0690 O.2    76  LEU76      -0.2718
     41  CB         9.4320    0.4580    8.8080 C.3    76  LEU76       0.0284
     42  CG         8.2960   -0.2990    9.4860 C.3    76  LEU76       0.0019
     43  CD1        8.8070   -1.5050   10.2950 C.3    76  LEU76       0.0001
     44  CD2        7.3790    0.6610   10.3240 C.3    76  LEU76       0.0001
     45  N         10.4900    3.1290    7.8240 N.am   77  GLU77      -0.1966
     46  CA        11.6240    3.9600    7.4810 C.3    77  GLU77       0.1733
     47  C         12.9420    3.1760    7.4670 C.2    77  GLU77       0.2616
     48  O         13.2730    2.4230    8.3890 O.2    77  GLU77      -0.2715
     49  CB        11.6700    5.1920    8.3970 C.3    77  GLU77       0.0429
     50  CG        12.9600    5.9870    8.3200 C.3    77  GLU77       0.1163
     51  CD        12.9850    7.2040    9.2590 C.2    77  GLU77       0.3649
     52  OE1       13.9790    7.9590    9.1290 O.co2  77  GLU77      -0.2457
     53  OE2       12.0820    7.3940   10.1330 O.co2  77  GLU77      -0.2457
     54  N         13.6740    3.3360    6.3770 N.am   78  TYR78      -0.1960
     55  CA        15.0020    2.7820    6.2560 C.3    78  TYR78       0.1771
     56  C         16.0320    3.6790    6.8810 C.2    78  TYR78       0.2620
     57  O         16.1000    4.9030    6.5990 O.2    78  TYR78      -0.2715
     58  CB        15.3900    2.6070    4.8070 C.3    78  TYR78       0.0574
     59  CG        16.7310    1.9530    4.6900 C.ar   78  TYR78      -0.0198
     60  CD1       17.0110    0.7620    5.4060 C.ar   78  TYR78      -0.0009
     61  CD2       17.7280    2.5140    3.8820 C.ar   78  TYR78      -0.0009
     62  CE1       18.2550    0.1490    5.2960 C.ar   78  TYR78       0.0417
     63  CE2       18.9660    1.9090    3.7800 C.ar   78  TYR78       0.0417
     64  CZ        19.2200    0.7250    4.4780 C.ar   78  TYR78       0.1957
     65  OH        20.4470    0.1240    4.3600 O.3    78  TYR78      -0.2866
     66  N         16.8380    3.0420    7.7240 N.am   79  CYS79      -0.1954
     67  CA        17.9120    3.7050    8.4610 C.3    79  CYS79       0.1843
     68  C         19.1970    3.0270    8.0680 C.2    79  CYS79       0.2626
     69  O         19.4920    1.8860    8.4540 O.2    79  CYS79      -0.2714
     70  CB        17.6680    3.6570   10.0000 C.3    79  CYS79       0.0997
     71  SG        16.0030    4.2140   10.4170 S.3    79  CYS79      -0.0797
     72  N         19.9340    3.7390    7.2470 N.am   80  SER80      -0.1936
     73  CA        21.1070    3.1660    6.5930 C.3    80  SER80       0.2055
     74  C         22.2730    3.1360    7.5490 C.2    80  SER80       0.2644
     75  O         23.2380    2.4190    7.2940 O.2    80  SER80      -0.2714
     76  CB        21.4570    3.9750    5.3400 C.3    80  SER80       0.2130
     77  OG        22.0090    5.2320    5.7100 O.3    80  SER80      -0.2179
     78  N         22.1890    3.9110    8.6330 N.am   81  GLY81      -0.1939
     79  CA        23.1060    3.8310    9.7780 C.3    81  GLY81       0.2014
     80  C         23.1430    2.5290   10.5370 C.2    81  GLY81       0.2639
     81  O         24.0910    2.2660   11.2890 O.2    81  GLY81      -0.2714
     82  N         22.1480    1.6690   10.3550 N.am   82  GLY82      -0.1939
     83  CA        22.0800    0.4190   11.1280 C.3    82  GLY82       0.2014
     84  C         21.7270    0.6890   12.5720 C.2    82  GLY82       0.2638
     85  O         21.2240    1.7610   12.8990 O.2    82  GLY82      -0.2714
     86  N         21.9950   -0.2720   13.4350 N.am   83  GLU83      -0.1977
     87  CA        21.6980   -0.1720   14.8950 C.3    83  GLU83       0.1602
     88  C         22.8180    0.3790   15.7400 C.2    83  GLU83       0.2287
     89  O         23.9570   -0.0540   15.6270 O.2    83  GLU83      -0.2864
     90  CB        21.4360   -1.5350   15.5190 C.3    83  GLU83       0.0415
     91  CG        21.3330   -2.6820   14.5650 C.3    83  GLU83       0.1163
     92  CD        20.6500   -3.8740   15.1740 C.2    83  GLU83       0.3649
     93  OE1       19.6530   -4.3560   14.5540 O.co2  83  GLU83      -0.2457
     94  OE2       21.1020   -4.3110   16.2610 O.co2  83  GLU83      -0.2457
     95  N         25.8590   -1.3800   17.1380 N.3    86  ASP86      -0.1239
     96  CA        27.1320   -1.5240   16.3900 C.3    86  ASP86       0.1674
     97  C         28.1260   -0.4160   16.4950 C.2    86  ASP86       0.2266
     98  O         29.2970   -0.5530   16.0480 O.2    86  ASP86      -0.2867
     99  CB        26.8820   -1.8450   14.8970 C.3    86  ASP86       0.1410
    100  CG        26.3140   -3.2190   14.7450 C.2    86  ASP86       0.3668
    101  OD1       25.2930   -3.3790   14.0640 O.co2  86  ASP86      -0.2456
    102  OD2       26.7830   -4.1900   15.4270 O.co2  86  ASP86      -0.2456
    103  N         17.9660    2.7350   15.9630 N.3   129  LEU129     -0.1245
    104  CA        18.4280    2.7330   14.5820 C.3   129  LEU129      0.1561
    105  C         18.8740    4.1340   14.2590 C.2   129  LEU129      0.2260
    106  O         18.4340    5.0950   14.8800 O.2   129  LEU129     -0.2867
    107  CB        17.3000    2.3490   13.6410 C.3   129  LEU129      0.0270
    108  CG        16.7940    0.8900   13.7240 C.3   129  LEU129      0.0019
    109  CD1       15.9290    0.5160   12.4760 C.3   129  LEU129      0.0001
    110  CD2       17.9320   -0.1170   13.9370 C.3   129  LEU129      0.0001
    111  N         12.7980    2.0760   17.3000 N.3   139  SER139     -0.1202
    112  CA        12.2440    1.1510   16.3530 C.3   139  SER139      0.2020
    113  C         11.6400   -0.0050   17.1270 C.2   139  SER139      0.2618
    114  O         12.1400   -0.3540   18.2240 O.2   139  SER139     -0.2717
    115  CB        13.3740    0.6140   15.4450 C.3   139  SER139      0.2103
    116  OG        13.0770   -0.6220   14.8150 O.3   139  SER139     -0.2182
    117  N         10.6110   -0.5910   16.5010 N.am  140  ASP140     -0.1973
    118  CA         9.9390   -1.8190   16.9240 C.3   140  ASP140      0.1709
    119  C          8.9340   -1.6500   18.0850 C.2   140  ASP140      0.2293
    120  O          9.3240   -1.5920   19.2550 O.2   140  ASP140     -0.2864
    121  CB        10.9410   -2.9040   17.2300 C.3   140  ASP140      0.1436
    122  CG        10.3000   -4.2340   17.5260 C.2   140  ASP140      0.3671
    123  OD1       11.0730   -5.1810   17.7960 O.co2 140  ASP140     -0.2456
    124  OD2        9.0660   -4.4390   17.5500 O.co2 140  ASP140     -0.2456
@<TRIPOS>BOND
     1    63    61   ar
     2    63    64   ar
     3    61    59   ar
     4    65    64    1
     5    64    62   ar
     6    16    17    1
     7    59    58    1
     8    59    60   ar
     9    58    55    1
    10     7     6    1
    11    17    18    1
    12    17    20    1
    13    18    19    2
    14    62    60   ar
    15    76    77    1
    16    76    73    1
    17    40    39    2
    18     8     6    1
    19     1     2    1
    20    55    54    1
    21    55    56    1
    22    11    12    2
    23    11    10    1
    24    54    47   am
    25     6     5    1
    26    37    38    1
    27    73    72    1
    28    73    74    1
    29    57    56    2
    30    56    66   am
    31    21    22    1
    32     5     2    1
    33     2     3    1
    34    39    38    1
    35    39    45   am
    36    72    68   am
    37    75    74    2
    38    24    23    2
    39    47    46    1
    40    47    48    2
    41    46    45    1
    42    46    49    1
    43    10     9    1
    44    10    13    1
    45    74    78   am
    46    38    41    1
    47    23    22    1
    48    66    67    1
    49    14    13    1
    50    22    25    1
    51    68    69    2
    52    68    67    1
    53    50    49    1
    54    50    51    1
    55     3     4    2
    56    67    70    1
    57    13    15    1
    58    78    79    1
    59    41    42    1
    60    52    51   ar
    61    51    53   ar
    62    25    26    1
    63    42    43    1
    64    42    44    1
    65    79    80    1
    66    70    71    1
    67    82    80   am
    68    82    83    1
    69    80    81    2
    70    26    27    1
    71    83    84    1
    72    35    34    1
    73    27    28    1
    74    32    33    2
    75    32    31    1
    76   109   108    1
    77    84    85    2
    78    84    86   am
    79    31    34    1
    80    31    30    1
    81    34    36    1
    82    28    29    1
    83    86    87    1
    84   107   108    1
    85   107   104    1
    86   108   110    1
    87   101   100   ar
    88   105   104    1
    89   105   106    2
    90    93    92   ar
    91    91    92    1
    92    91    90    1
    93   104   103    1
    94   100    99    1
    95   100   102   ar
    96   116   115    1
    97    87    90    1
    98    87    88    1
    99    99    96    1
   100    92    94   ar
   101   115   112    1
   102    89    88    2
   103    98    97    2
   104   112   113    1
   105   112   111    1
   106    96    97    1
   107    96    95    1
   108   117   118    1
   109   117   113   am
   110   118   121    1
   111   118   119    1
   112   113   114    2
   113   121   122    1
   114   122   124   ar
   115   122   123   ar
   116   119   120    2
