@<TRIPOS>MOLECULE
tmp/2c3qB00.pdb
 207 199 0 0 0
SMALL
GASTEIGER

@<TRIPOS>ATOM
      1  N          1.6220  -46.2780  -17.3310 N.3     9  LEU9       -0.1231
      2  CA         1.2650  -45.6020  -16.0960 C.3     9  LEU9        0.1693
      3  C          1.1680  -44.0710  -16.3020 C.2     9  LEU9        0.2592
      4  O          0.2950  -43.4120  -15.7310 O.2     9  LEU9       -0.2718
      5  CB         2.2750  -45.9180  -14.9870 C.3     9  LEU9        0.0284
      6  CG         2.1270  -45.2250  -13.6150 C.3     9  LEU9        0.0019
      7  CD1        0.8250  -45.6510  -12.9040 C.3     9  LEU9        0.0001
      8  CD2        3.3630  -45.4560  -12.7260 C.3     9  LEU9        0.0001
      9  N          2.0350  -43.5290  -17.1420 N.am   10  SER10      -0.1952
     10  CA         2.0700  -42.0690  -17.3120 C.3    10  SER10       0.1924
     11  C          1.1240  -41.5820  -18.4070 C.2    10  SER10       0.2314
     12  O          1.0380  -42.2180  -19.4630 O.2    10  SER10      -0.2863
     13  CB         3.4980  -41.6020  -17.5970 C.3    10  SER10       0.2116
     14  OG         3.7450  -41.5030  -18.9560 O.3    10  SER10      -0.2180
     15  N          1.3320  -38.8760  -20.4950 N.3    12  PRO12      -0.2116
     16  CA         1.8560  -38.6320  -21.8680 C.3    12  PRO12       0.1372
     17  C          2.1710  -39.8810  -22.7190 C.2    12  PRO12       0.2244
     18  O          1.9870  -39.8150  -23.9410 O.2    12  PRO12      -0.2868
     19  CB         3.1550  -37.8240  -21.6050 C.3    12  PRO12       0.0268
     20  CG         3.5770  -38.1770  -20.2440 C.3    12  PRO12       0.0207
     21  CD         2.2670  -38.2870  -19.4960 C.3    12  PRO12       0.0892
     22  N          8.7060  -47.7270  -14.7490 N.3    34  LEU34      -0.1231
     23  CA         8.8800  -46.5990  -13.8250 C.3    34  LEU34       0.1693
     24  C          8.8480  -46.9620  -12.3380 C.2    34  LEU34       0.2591
     25  O          9.6420  -46.4080  -11.5730 O.2    34  LEU34      -0.2718
     26  CB         7.8040  -45.5080  -14.0800 C.3    34  LEU34       0.0284
     27  CG         7.7470  -44.7260  -15.4110 C.3    34  LEU34       0.0019
     28  CD1        6.4730  -43.8810  -15.4980 C.3    34  LEU34       0.0001
     29  CD2        8.9700  -43.8390  -15.6160 C.3    34  LEU34       0.0001
     30  N          7.9500  -47.8830  -11.9460 N.am   35  ILE35      -0.1980
     31  CA         7.8360  -48.3240  -10.5200 C.3    35  ILE35       0.1595
     32  C          9.0790  -49.1420  -10.0830 C.2    35  ILE35       0.2287
     33  O          9.3430  -49.2400   -8.8890 O.2    35  ILE35      -0.2864
     34  CB         6.4670  -49.0740  -10.1610 C.3    35  ILE35       0.0276
     35  CG1        6.3330  -50.4440  -10.8420 C.3    35  ILE35       0.0022
     36  CG2        5.2510  -48.1460  -10.4410 C.3    35  ILE35       0.0022
     37  CD1        5.1010  -51.2600  -10.3900 C.3    35  ILE35       0.0001
     38  N         13.8620  -46.1330  -15.6010 N.3    39  HIS39      -0.1241
     39  CA        14.1460  -44.8480  -16.2620 C.3    39  HIS39       0.1621
     40  C         15.3710  -44.1610  -15.6570 C.2    39  HIS39       0.2264
     41  O         15.9280  -43.2600  -16.2680 O.2    39  HIS39      -0.2867
     42  CB        12.9060  -43.9380  -16.2160 C.3    39  HIS39       0.0745
     43  CG        12.4930  -43.5490  -14.8360 C.ar   39  HIS39       0.0817
     44  ND1       11.8720  -44.4250  -13.9690 N.ar   39  HIS39      -0.2268
     45  CD2       12.6040  -42.3770  -14.1740 C.ar   39  HIS39       0.1154
     46  CE1       11.6130  -43.8040  -12.8350 C.ar   39  HIS39       0.1986
     47  NE2       12.0580  -42.5640  -12.9290 N.ar   39  HIS39      -0.2212
     48  N         15.9520  -38.5970  -18.2300 N.3    51  LYS51      -0.1231
     49  CA        15.4540  -39.7790  -17.4840 C.3    51  LYS51       0.1693
     50  C         13.9250  -39.7630  -17.2750 C.2    51  LYS51       0.2592
     51  O         13.4060  -40.0050  -16.1830 O.2    51  LYS51      -0.2718
     52  CB        16.2320  -39.9400  -16.1540 C.3    51  LYS51       0.0285
     53  CG        17.6780  -40.4390  -16.3780 C.3    51  LYS51       0.0035
     54  CD        18.3250  -40.8660  -15.0660 C.3    51  LYS51       0.0206
     55  CE        19.0830  -39.7710  -14.3700 C.3    51  LYS51       0.1093
     56  NZ        20.4380  -39.7400  -14.9780 N.3    51  LYS51      -0.1314
     57  N         13.2320  -39.4240  -18.3580 N.am   52  LYS52      -0.1966
     58  CA        11.7850  -39.3420  -18.3860 C.3    52  LYS52       0.1728
     59  C         11.2320  -40.0300  -19.6300 C.2    52  LYS52       0.2616
     60  O         11.9360  -40.2150  -20.6220 O.2    52  LYS52      -0.2715
     61  CB        11.3410  -37.8730  -18.3160 C.3    52  LYS52       0.0311
     62  CG        11.5620  -37.2180  -16.9510 C.3    52  LYS52       0.0038
     63  CD        11.3380  -35.7370  -16.9540 C.3    52  LYS52       0.0206
     64  CE        11.4160  -35.2030  -15.5480 C.3    52  LYS52       0.1093
     65  NZ        11.3620  -33.7280  -15.5640 N.3    52  LYS52      -0.1314
     66  N          9.9580  -40.4020  -19.5490 N.am   53  VAL53      -0.1964
     67  CA         9.2030  -41.0180  -20.6330 C.3    53  VAL53       0.1712
     68  C          7.9770  -40.1230  -20.9790 C.2    53  VAL53       0.2458
     69  O          7.4490  -39.4530  -20.0770 O.2    53  VAL53      -0.2730
     70  CB         8.7860  -42.5120  -20.3220 C.3    53  VAL53       0.0289
     71  CG1        9.9860  -43.4500  -20.3290 C.3    53  VAL53       0.0023
     72  CG2        8.0220  -42.6340  -18.9980 C.3    53  VAL53       0.0023
     73  N          7.4910  -40.1230  -22.2520 N.am   54  PRO54      -0.2727
     74  CA         7.8790  -40.8870  -23.4560 C.3    54  PRO54       0.1402
     75  C          9.1400  -40.3750  -24.1320 C.2    54  PRO54       0.2269
     76  O          9.4590  -39.1960  -24.0110 O.2    54  PRO54      -0.2865
     77  CB         6.6800  -40.6950  -24.3960 C.3    54  PRO54       0.0296
     78  CG         6.1280  -39.3710  -24.0540 C.3    54  PRO54       0.0237
     79  CD         6.4040  -39.1790  -22.5640 C.3    54  PRO54       0.0939
     80  N          9.2890  -35.1740  -25.2410 N.3    65  GLU65      -0.1231
     81  CA         8.0310  -34.3790  -25.1140 C.3    65  GLU65       0.1699
     82  C          6.9110  -34.9940  -25.8960 C.2    65  GLU65       0.2593
     83  O          6.9830  -35.0910  -27.1130 O.2    65  GLU65      -0.2718
     84  CB         8.1840  -32.9040  -25.5400 C.3    65  GLU65       0.0402
     85  CG         9.1050  -32.0930  -24.6180 C.3    65  GLU65       0.1161
     86  CD         8.5510  -31.9330  -23.1940 C.2    65  GLU65       0.3649
     87  OE1        7.3210  -31.7900  -22.9940 O.co2  65  GLU65      -0.2457
     88  OE2        9.3670  -31.9260  -22.2830 O.co2  65  GLU65      -0.2457
     89  N          5.8390  -35.3560  -25.2000 N.am   66  SER66      -0.1938
     90  CA         4.7180  -36.0540  -25.8580 C.3    66  SER66       0.2055
     91  C          4.0380  -35.2400  -26.9430 C.2    66  SER66       0.2642
     92  O          3.6530  -35.8140  -27.9430 O.2    66  SER66      -0.2714
     93  CB         3.6490  -36.5010  -24.8340 C.3    66  SER66       0.2130
     94  OG         3.1890  -35.3970  -24.0870 O.3    66  SER66      -0.2179
     95  N          3.9050  -33.9290  -26.7500 N.am   67  VAL67      -0.1977
     96  CA         3.3480  -33.0260  -27.7780 C.3    67  VAL67       0.1596
     97  C          4.2350  -33.0460  -29.0630 C.2    67  VAL67       0.2287
     98  O          3.7120  -33.1790  -30.1670 O.2    67  VAL67      -0.2864
     99  CB         3.1040  -31.5910  -27.2160 C.3    67  VAL67       0.0276
    100  CG1        2.7190  -30.6210  -28.3280 C.3    67  VAL67       0.0022
    101  CG2        2.0380  -31.6270  -26.1120 C.3    67  VAL67       0.0022
    102  N         -0.3390  -28.0140  -20.3140 N.3   102  HIS102     -0.1241
    103  CA         0.9550  -28.2810  -19.6230 C.3   102  HIS102      0.1621
    104  C          1.0160  -27.8160  -18.1750 C.2   102  HIS102      0.2264
    105  O          1.4750  -28.5490  -17.3150 O.2   102  HIS102     -0.2867
    106  CB         2.1060  -27.6080  -20.3560 C.3   102  HIS102      0.0745
    107  CG         2.4840  -28.2660  -21.6360 C.ar  102  HIS102      0.0817
    108  ND1        2.1940  -27.7240  -22.8720 N.ar  102  HIS102     -0.2268
    109  CD2        3.1570  -29.4140  -21.8720 C.ar  102  HIS102      0.1154
    110  CE1        2.7080  -28.5050  -23.8110 C.ar  102  HIS102      0.1986
    111  NE2        3.2720  -29.5470  -23.2310 N.ar  102  HIS102     -0.2212
    112  N         -2.6310  -30.9330  -16.9300 N.3   106  ARG106     -0.1245
    113  CA        -1.5500  -31.9080  -16.7080 C.3   106  ARG106      0.1563
    114  C         -1.1670  -31.9560  -15.2290 C.2   106  ARG106      0.2260
    115  O         -1.1310  -33.0290  -14.6270 O.2   106  ARG106     -0.2867
    116  CB        -0.2960  -31.6040  -17.5390 C.3   106  ARG106      0.0307
    117  CG         0.8490  -32.5880  -17.2860 C.3   106  ARG106      0.0489
    118  CD         2.2320  -31.9870  -17.5280 C.3   106  ARG106      0.2205
    119  NE         2.5190  -30.8650  -16.6340 N.pl3 106  ARG106     -0.0865
    120  CZ         3.0610  -30.9520  -15.4170 C.cat 106  ARG106      0.5346
    121  NH1        3.3970  -32.1230  -14.8960 N.pl3 106  ARG106      0.1354
    122  NH2        3.2620  -29.8510  -14.7020 N.pl3 106  ARG106      0.1354
    123  N         -2.0170  -34.9300  -12.4510 N.3   110  LEU110     -0.1245
    124  CA        -0.8400  -35.5690  -11.8730 C.3   110  LEU110      0.1561
    125  C         -0.8670  -35.4930  -10.3320 C.2   110  LEU110      0.2260
    126  O         -0.6680  -36.5110   -9.6520 O.2   110  LEU110     -0.2867
    127  CB         0.4460  -34.9450  -12.4450 C.3   110  LEU110      0.0270
    128  CG         1.7740  -35.5420  -11.9780 C.3   110  LEU110      0.0019
    129  CD1        1.9240  -36.9860  -12.5080 C.3   110  LEU110      0.0001
    130  CD2        2.9530  -34.6640  -12.3890 C.3   110  LEU110      0.0001
    131  N         -1.0130  -38.5670   -7.3690 N.3   114  TRP114     -0.1241
    132  CA         0.0570  -38.7060   -6.3590 C.3   114  TRP114      0.1605
    133  C         -0.3940  -38.4070   -4.9250 C.2   114  TRP114      0.2264
    134  O         -0.0280  -39.1590   -4.0250 O.2   114  TRP114     -0.2867
    135  CB         1.2510  -37.8370   -6.7710 C.3   114  TRP114      0.0550
    136  CG         1.9960  -38.6280   -7.7670 C.ar  114  TRP114      0.0003
    137  CD1        1.7900  -38.6730   -9.1110 C.ar  114  TRP114      0.0946
    138  CD2        2.9860  -39.6100   -7.4730 C.ar  114  TRP114      0.0152
    139  NE1        2.6280  -39.5980   -9.6900 N.ar  114  TRP114     -0.2442
    140  CE2        3.3610  -40.2040   -8.7010 C.ar  114  TRP114      0.0810
    141  CE3        3.6080  -40.0430   -6.2820 C.ar  114  TRP114      0.0012
    142  CZ2        4.3610  -41.1890   -8.7880 C.ar  114  TRP114      0.0191
    143  CZ3        4.5870  -41.0470   -6.3670 C.ar  114  TRP114      0.0001
    144  CH2        4.9480  -41.6070   -7.6160 C.ar  114  TRP114      0.0015
    145  N         -0.5960  -42.6120   -5.1950 N.3   118  MET118     -0.1245
    146  CA         0.7980  -43.0670   -5.3570 C.3   118  MET118      0.1570
    147  C          1.7510  -42.6680   -4.2000 C.2   118  MET118      0.2261
    148  O          2.6840  -43.4180   -3.9390 O.2   118  MET118     -0.2867
    149  CB         1.3180  -42.5870   -6.7110 C.3   118  MET118      0.0387
    150  CG         0.6090  -43.1570   -7.8940 C.3   118  MET118      0.0595
    151  SD         0.9750  -44.8730   -8.1460 S.3   118  MET118     -0.1393
    152  CE         2.7210  -44.7620   -8.6130 C.3   118  MET118      0.0692
    153  N          1.9700  -46.4380   -2.9220 N.3   122  PHE122     -0.1241
    154  CA         3.2400  -46.8520   -3.5200 C.3   122  PHE122      0.1605
    155  C          4.4800  -46.3640   -2.7490 C.2   122  PHE122      0.2264
    156  O          5.3820  -47.1690   -2.5130 O.2   122  PHE122     -0.2867
    157  CB         3.2920  -46.4090   -5.0030 C.3   122  PHE122      0.0534
    158  CG         4.5830  -46.7140   -5.6760 C.ar  122  PHE122     -0.0203
    159  CD1        4.9520  -48.0470   -5.9430 C.ar  122  PHE122     -0.0042
    160  CD2        5.4330  -45.6780   -6.0570 C.ar  122  PHE122     -0.0042
    161  CE1        6.1820  -48.3450   -6.5480 C.ar  122  PHE122     -0.0003
    162  CE2        6.6590  -45.9580   -6.6790 C.ar  122  PHE122     -0.0003
    163  CZ         7.0370  -47.2970   -6.9300 C.ar  122  PHE122     -0.0000
    164  N         -5.9120  -40.1240  -15.2400 N.3   175  HIS175     -0.1241
    165  CA        -5.0610  -40.1150  -14.0430 C.3   175  HIS175      0.1621
    166  C         -5.9280  -40.0320  -12.7480 C.2   175  HIS175      0.2264
    167  O         -5.8340  -40.9650  -11.9270 O.2   175  HIS175     -0.2867
    168  CB        -3.9820  -39.0070  -14.1140 C.3   175  HIS175      0.0745
    169  CG        -2.5890  -39.5220  -14.2080 C.ar  175  HIS175      0.0817
    170  ND1       -2.2370  -40.5990  -14.9860 N.ar  175  HIS175     -0.2268
    171  CD2       -1.4540  -39.0970  -13.6120 C.ar  175  HIS175      0.1154
    172  CE1       -0.9440  -40.8270  -14.8550 C.ar  175  HIS175      0.1986
    173  NE2       -0.4430  -39.9250  -14.0350 N.ar  175  HIS175     -0.2212
    174  N         13.5190  -42.4470   -6.2190 N.3   230  LEU230     -0.1245
    175  CA        12.3200  -41.8400   -6.8160 C.3   230  LEU230      0.1561
    176  C         11.8030  -40.6020   -6.0890 C.2   230  LEU230      0.2260
    177  O         11.2220  -39.7500   -6.7440 O.2   230  LEU230     -0.2867
    178  CB        11.1740  -42.8600   -6.8960 C.3   230  LEU230      0.0270
    179  CG        11.2280  -44.0050   -7.9120 C.3   230  LEU230      0.0019
    180  CD1        9.9690  -44.8030   -7.7810 C.3   230  LEU230      0.0001
    181  CD2       11.3700  -43.5140   -9.3300 C.3   230  LEU230      0.0001
    182  N         12.8150  -37.0040   -7.4920 N.3   233  ARG233     -0.1231
    183  CA        12.2850  -36.9940   -8.8430 C.3   233  ARG233      0.1694
    184  C         10.7950  -36.7180   -8.8160 C.2   233  ARG233      0.2591
    185  O         10.3100  -35.8950   -9.5840 O.2   233  ARG233     -0.2718
    186  CB        12.5270  -38.3340   -9.5320 C.3   233  ARG233      0.0321
    187  CG        13.9750  -38.8360   -9.6500 C.3   233  ARG233      0.0489
    188  CD        14.8270  -38.0970  -10.6710 C.3   233  ARG233      0.2205
    189  NE        14.2330  -38.0960  -12.0110 N.pl3 233  ARG233     -0.0865
    190  CZ        14.8250  -37.6330  -13.1060 C.cat 233  ARG233      0.5346
    191  NH1       16.0630  -37.1510  -13.0550 N.pl3 233  ARG233      0.1354
    192  NH2       14.1810  -37.6730  -14.2650 N.pl3 233  ARG233      0.1354
    193  N         10.0980  -37.3680   -7.8870 N.am  234  VAL234     -0.1980
    194  CA         8.6560  -37.1920   -7.6880 C.3   234  VAL234      0.1595
    195  C          8.3570  -35.7980   -7.0860 C.2   234  VAL234      0.2287
    196  O          7.4630  -35.1270   -7.5700 O.2   234  VAL234     -0.2864
    197  CB         8.0530  -38.3590   -6.8430 C.3   234  VAL234      0.0276
    198  CG1        6.6580  -38.0690   -6.4190 C.3   234  VAL234      0.0022
    199  CG2        8.0500  -39.6560   -7.6410 C.3   234  VAL234      0.0022
    200  N          8.6190  -33.3520   -9.6710 N.3   237  MET237     -0.1245
    201  CA         7.5540  -33.6310  -10.6140 C.3   237  MET237      0.1570
    202  C          6.2120  -33.0230  -10.2000 C.2   237  MET237      0.2261
    203  O          5.4620  -32.5080  -11.0440 O.2   237  MET237     -0.2867
    204  CB         7.4090  -35.1570  -10.7520 C.3   237  MET237      0.0387
    205  CG         6.7270  -35.7790  -11.9360 C.3   237  MET237      0.0595
    206  SD         7.7280  -35.5510  -13.3920 S.3   237  MET237     -0.1393
    207  CE         6.9410  -34.0880  -14.1210 C.3   237  MET237      0.0692
@<TRIPOS>BOND
     1    98    97    2
     2    97    96    1
     3   100    99    1
     4    92    91    2
     5    96    99    1
     6    96    95    1
     7    99   101    1
     8    83    82    2
     9    91    95   am
    10    91    90    1
    11    82    89   am
    12    82    81    1
    13    90    89    1
    14    90    93    1
    15    84    81    1
    16    84    85    1
    17    80    81    1
    18    93    94    1
    19    85    86    1
    20    77    78    1
    21    77    74    1
    22    75    76    2
    23    75    74    1
    24    78    79    1
    25    18    17    2
    26   110   111   ar
    27   110   108   ar
    28    74    73    1
    29   111   109   ar
    30    86    87   ar
    31    86    88   ar
    32   108   107   ar
    33    17    16    1
    34    79    73    1
    35    73    68   am
    36   109   107   ar
    37    16    19    1
    38    16    15    1
    39   107   106    1
    40    19    20    1
    41    68    67    1
    42    68    69    2
    43    67    70    1
    44    67    66    1
    45    60    59    2
    46    15    21    1
    47   106   103    1
    48    71    70    1
    49    70    72    1
    50   102   103    1
    51    20    21    1
    52    59    66   am
    53    59    58    1
    54   103   104    1
    55    12    11    2
    56    14    13    1
    57    11    10    1
    58    58    57    1
    59    58    61    1
    60    57    50   am
    61    61    62    1
    62    48    49    1
    63   104   105    2
    64    13    10    1
    65   116   117    1
    66   116   113    1
    67   118   117    1
    68   118   119    1
    69    49    50    1
    70    49    52    1
    71     1     2    1
    72    10     9    1
    73    50    51    2
    74     9     3   am
    75    63    62    1
    76    63    64    1
    77   112   113    1
    78   113   114    1
    79   119   120    2
    80    53    52    1
    81    53    54    1
    82     3     2    1
    83     3     4    2
    84    41    40    2
    85    39    42    1
    86    39    40    1
    87    39    38    1
    88    42    43    1
    89     2     5    1
    90    29    27    1
    91    65    64    1
    92    28    27    1
    93   120   121    1
    94   120   122    1
    95    27    26    1
    96   164   165    1
    97   114   115    2
    98    54    55    1
    99     5     6    1
   100   170   172   ar
   101   170   169   ar
   102    56    55    1
   103   172   173   ar
   104    43    45   ar
   105    43    44   ar
   106    22    23    1
   107   192   190    1
   108   169   168    1
   109   169   171   ar
   110    45    47   ar
   111   207   206    1
   112   168   165    1
   113    26    23    1
   114   165   166    1
   115   173   171   ar
   116    44    46   ar
   117    23    24    1
   118     6     7    1
   119     6     8    1
   120   206   205    1
   121   190   191    1
   122   190   189    2
   123    47    46   ar
   124   166   167    2
   125   129   128    1
   126   123   124    1
   127   127   128    1
   128   127   124    1
   129   130   128    1
   130    24    30   am
   131    24    25    2
   132   189   188    1
   133    30    31    1
   134   205   204    1
   135   124   125    1
   136   203   202    2
   137    35    37    1
   138    35    34    1
   139   204   201    1
   140   188   187    1
   141   201   202    1
   142   201   200    1
   143    31    34    1
   144    31    32    1
   145    36    34    1
   146   125   126    2
   147    32    33    2
   148   139   137   ar
   149   139   140   ar
   150   187   186    1
   151   185   184    2
   152   186   183    1
   153   181   179    1
   154   137   136   ar
   155   183   184    1
   156   183   182    1
   157   184   193   am
   158   142   140   ar
   159   142   144   ar
   160   140   138   ar
   161   152   151    1
   162   151   150    1
   163   179   180    1
   164   179   178    1
   165   150   149    1
   166   193   194    1
   167   136   138   ar
   168   136   135    1
   169   194   195    1
   170   194   197    1
   171   199   197    1
   172   144   143   ar
   173   196   195    2
   174   138   141   ar
   175   131   132    1
   176   163   162   ar
   177   163   161   ar
   178   178   175    1
   179   197   198    1
   180   175   174    1
   181   175   176    1
   182   135   132    1
   183   177   176    2
   184   149   146    1
   185   162   160   ar
   186   161   159   ar
   187   143   141   ar
   188   132   133    1
   189   160   158   ar
   190   159   158   ar
   191   158   157    1
   192   146   145    1
   193   146   147    1
   194   157   154    1
   195   133   134    2
   196   147   148    2
   197   154   153    1
   198   154   155    1
   199   155   156    2
