@<TRIPOS>MOLECULE
tmp/2c3wA01.pdb
 121 122 0 0 0
SMALL
GASTEIGER

@<TRIPOS>ATOM
      1  N          9.0910    5.1120   26.0600 N.3     9  TYR9       -0.1227
      2  CA         9.9160    3.9400   25.9370 C.3     9  TYR9        0.1736
      3  C         11.3650    4.3110   25.7630 C.2     9  TYR9        0.2595
      4  O         11.7250    5.0020   24.8260 O.2     9  TYR9       -0.2718
      5  CB         9.4790    3.1290   24.7140 C.3     9  TYR9        0.0548
      6  CG        10.2560    1.8600   24.4390 C.ar    9  TYR9       -0.0200
      7  CD1       10.4850    0.9330   25.4450 C.ar    9  TYR9       -0.0009
      8  CD2       10.7440    1.5870   23.1700 C.ar    9  TYR9       -0.0009
      9  CE1       11.1950   -0.2250   25.1590 C.ar    9  TYR9        0.0417
     10  CE2       11.4050    0.4090   22.8630 C.ar    9  TYR9        0.0417
     11  CZ        11.6440   -0.4720   23.8880 C.ar    9  TYR9        0.1957
     12  OH        12.2940   -1.6470   23.6360 O.3     9  TYR9       -0.2866
     13  N         12.1990    3.8310   26.6570 N.am   10  LYS10      -0.1966
     14  CA        13.6460    4.0860   26.5860 C.3    10  LYS10       0.1728
     15  C         14.2360    3.1780   25.5090 C.2    10  LYS10       0.2617
     16  O         14.2160    1.9640   25.6540 O.2    10  LYS10      -0.2715
     17  CB        14.3300    3.7120   27.8550 C.3    10  LYS10       0.0311
     18  CG        15.7990    4.0120   27.8540 C.3    10  LYS10       0.0038
     19  CD        16.3960    3.6280   29.1880 C.3    10  LYS10       0.0206
     20  CE        17.8960    3.4460   29.1480 C.3    10  LYS10       0.1093
     21  NZ        18.3900    3.1620   30.5830 N.3    10  LYS10      -0.1314
     22  N         14.7320    3.7830   24.4580 N.am   11  THR11      -0.1937
     23  CA        15.4620    3.0440   23.4320 C.3    11  THR11       0.2028
     24  C         16.3340    3.9250   22.5910 C.2    11  THR11       0.2643
     25  O         16.0520    5.1300   22.4190 O.2    11  THR11      -0.2714
     26  CB        14.4160    2.3370   22.5180 C.3    11  THR11       0.1808
     27  OG1       15.0900    1.4930   21.5570 O.3    11  THR11      -0.2208
     28  CG2       13.6290    3.3470   21.7190 C.3    11  THR11       0.0379
     29  N         17.4100    3.3410   22.0380 N.am   12  GLY12      -0.1939
     30  CA        18.2180    3.9780   21.0340 C.3    12  GLY12       0.2014
     31  C         17.9030    3.5500   19.5960 C.2    12  GLY12       0.2638
     32  O         18.4330    4.0960   18.6220 O.2    12  GLY12      -0.2714
     33  N         16.9720    2.6010   19.4550 N.am   13  TRP13      -0.1973
     34  CA        16.5100    2.2320   18.1650 C.3    13  TRP13       0.1640
     35  C         15.9940    3.4740   17.4390 C.2    13  TRP13       0.2290
     36  O         15.2560    4.3020   18.0350 O.2    13  TRP13      -0.2864
     37  CB        15.3500    1.2290   18.3010 C.3    13  TRP13       0.0576
     38  CG        15.7450   -0.1180   18.7730 C.ar   13  TRP13       0.0006
     39  CD1       16.9970   -0.6890   18.7110 C.ar   13  TRP13       0.0946
     40  CD2       14.8870   -1.1030   19.3350 C.ar   13  TRP13       0.0152
     41  NE1       16.9550   -1.9720   19.2120 N.ar   13  TRP13      -0.2442
     42  CE2       15.6690   -2.2700   19.5710 C.ar   13  TRP13       0.0810
     43  CE3       13.5200   -1.1370   19.6470 C.ar   13  TRP13       0.0012
     44  CZ2       15.1450   -3.4180   20.1450 C.ar   13  TRP13       0.0191
     45  CZ3       12.9920   -2.2900   20.2080 C.ar   13  TRP13       0.0001
     46  CH2       13.8090   -3.4170   20.4640 C.ar   13  TRP13       0.0015
     47  N         16.5930    9.9830   24.6830 N.3    42  GLY42      -0.1225
     48  CA        16.6620    8.5610   24.9720 C.3    42  GLY42       0.1811
     49  C         15.3310    7.8270   25.0470 C.2    42  GLY42       0.2280
     50  O         15.3230    6.6350   25.2900 O.2    42  GLY42      -0.2866
     51  N         13.6060   -7.5110   18.7940 N.3    67  TRP67      -0.1227
     52  CA        12.5140   -7.3870   19.7560 C.3    67  TRP67       0.1737
     53  C         12.9120   -7.1060   21.2150 C.2    67  TRP67       0.2595
     54  O         13.9890   -7.4690   21.7150 O.2    67  TRP67      -0.2718
     55  CB        11.6250   -8.6480   19.7330 C.3    67  TRP67       0.0564
     56  CG        10.9230   -8.8110   18.4040 C.ar   67  TRP67       0.0003
     57  CD1       11.4110   -9.3720   17.2790 C.ar   67  TRP67       0.0946
     58  CD2        9.5910   -8.3600   18.0890 C.ar   67  TRP67       0.0152
     59  NE1       10.4600   -9.3200   16.2840 N.ar   67  TRP67      -0.2442
     60  CE2        9.3390   -8.6990   16.7570 C.ar   67  TRP67       0.0810
     61  CE3        8.5920   -7.7300   18.8240 C.ar   67  TRP67       0.0012
     62  CZ2        8.1230   -8.4080   16.1380 C.ar   67  TRP67       0.0191
     63  CZ3        7.3760   -7.4460   18.2210 C.ar   67  TRP67       0.0001
     64  CH2        7.1670   -7.7520   16.8860 C.ar   67  TRP67       0.0015
     65  N         11.9700   -6.4760   21.9220 N.am   68  ASP68      -0.1960
     66  CA        11.9640   -6.3220   23.3280 C.3    68  ASP68       0.1840
     67  C         10.6270   -6.7790   23.8450 C.2    68  ASP68       0.2622
     68  O          9.6390   -6.0390   23.7620 O.2    68  ASP68      -0.2715
     69  CB        12.2470   -4.8810   23.7020 C.3    68  ASP68       0.1450
     70  CG        12.1290   -4.6260   25.1840 C.2    68  ASP68       0.3671
     71  OD1       12.0680   -5.5460   26.0520 O.co2  68  ASP68      -0.2456
     72  OD2       12.1450   -3.4340   25.5880 O.co2  68  ASP68      -0.2456
     73  N         10.5430   -8.0360   24.2870 N.am   69  ASN69      -0.1958
     74  CA         9.2620   -8.6230   24.6330 C.3    69  ASN69       0.1819
     75  C          9.1130   -9.1190   26.0770 C.2    69  ASN69       0.2621
     76  O          8.2820   -9.9730   26.3750 O.2    69  ASN69      -0.2715
     77  CB         8.9520   -9.7270   23.6690 C.3    69  ASN69       0.1195
     78  CG         9.9560  -10.8850   23.7740 C.2    69  ASN69       0.2630
     79  OD1       10.7090  -10.9710   24.7530 O.2    69  ASN69      -0.2716
     80  ND2        9.9700  -11.7660   22.7850 N.am   69  ASN69      -0.0877
     81  N          9.9140   -8.5750   26.9800 N.am   70  ASN70      -0.1958
     82  CA         9.7640   -8.8600   28.4050 C.3    70  ASN70       0.1819
     83  C          9.9230  -10.3640   28.7150 C.2    70  ASN70       0.2621
     84  O          9.0580  -10.9420   29.3470 O.2    70  ASN70      -0.2715
     85  CB         8.4060   -8.3860   28.9900 C.3    70  ASN70       0.1195
     86  CG         8.4040   -8.3030   30.5000 C.2    70  ASN70       0.2630
     87  OD1        9.4630   -8.1880   31.1050 O.2    70  ASN70      -0.2716
     88  ND2        7.1990   -8.3830   31.1390 N.am   70  ASN70      -0.0877
     89  N         10.9930  -10.9460   28.2250 N.am   71  GLN71      -0.1977
     90  CA        11.3180  -12.3710   28.4690 C.3    71  GLN71       0.1601
     91  C         10.2130  -13.2480   27.8930 C.2    71  GLN71       0.2287
     92  O          9.8880  -14.3240   28.4240 O.2    71  GLN71      -0.2864
     93  CB        11.5140  -12.7000   29.9470 C.3    71  GLN71       0.0394
     94  CG        12.3580  -11.7070   30.6980 C.3    71  GLN71       0.0908
     95  CD        13.7440  -11.4300   30.1050 C.2    71  GLN71       0.2608
     96  OE1       14.3530  -12.3040   29.4880 O.2    71  GLN71      -0.2717
     97  NE2       14.2580  -10.1670   30.3090 N.am   71  GLN71      -0.0878
     98  N          4.6010   -6.8260   27.5160 N.3    75  TYR75      -0.1241
     99  CA         4.4010   -5.8110   28.4760 C.3    75  TYR75       0.1605
    100  C          2.9410   -5.3990   28.5310 C.2    75  TYR75       0.2264
    101  O          2.3030   -5.2330   27.4840 O.2    75  TYR75      -0.2867
    102  CB         5.2170   -4.5850   28.0770 C.3    75  TYR75       0.0534
    103  CG         6.7090   -4.8210   28.1450 C.ar   75  TYR75      -0.0201
    104  CD1        7.3500   -4.7950   29.3480 C.ar   75  TYR75      -0.0009
    105  CD2        7.4760   -4.9530   26.9800 C.ar   75  TYR75      -0.0009
    106  CE1        8.7250   -4.9340   29.4200 C.ar   75  TYR75       0.0417
    107  CE2        8.8320   -5.1070   27.0200 C.ar   75  TYR75       0.0417
    108  CZ         9.4500   -5.1430   28.2840 C.ar   75  TYR75       0.1957
    109  OH        10.8130   -5.2570   28.3840 O.3    75  TYR75      -0.2866
    110  N         14.2490   -0.2850   30.5670 N.3    86  ASP86      -0.1225
    111  CA        15.0050   -1.4740   30.9370 C.3    86  ASP86       0.1805
    112  C         14.1640   -2.5540   31.5430 C.2    86  ASP86       0.2598
    113  O         14.5250   -3.2040   32.5680 O.2    86  ASP86      -0.2718
    114  CB        16.1690   -1.1390   31.8790 C.3    86  ASP86       0.1424
    115  CG        17.0840   -0.0970   31.3270 C.2    86  ASP86       0.3668
    116  OD1       17.4330   -0.1430   30.1350 O.co2  86  ASP86      -0.2456
    117  OD2       17.5380    0.8000   32.0680 O.co2  86  ASP86      -0.2456
    118  N         13.0500   -2.7990   30.8920 N.am   87  GLY87      -0.1957
    119  CA        12.1580   -3.8320   31.2590 C.3    87  GLY87       0.1869
    120  C         11.2200   -3.5520   32.4210 C.2    87  GLY87       0.2309
    121  O         10.4920   -4.4380   32.7750 O.2    87  GLY87      -0.2863
@<TRIPOS>BOND
     1    62    60   ar
     2    62    64   ar
     3    59    60   ar
     4    59    57   ar
     5    60    58   ar
     6    64    63   ar
     7    57    56   ar
     8    35    36    2
     9    35    34    1
    10    58    56   ar
    11    58    61   ar
    12    34    37    1
    13    34    33    1
    14    63    61   ar
    15    37    38    1
    16    56    55    1
    17    32    31    2
    18    39    38   ar
    19    39    41   ar
    20    38    40   ar
    21    51    52    1
    22    41    42   ar
    23    40    42   ar
    24    40    43   ar
    25    33    31   am
    26    42    44   ar
    27    31    30    1
    28    43    45   ar
    29    55    52    1
    30    52    53    1
    31    44    46   ar
    32    45    46   ar
    33    30    29    1
    34    53    54    2
    35    53    65   am
    36    27    26    1
    37    28    26    1
    38    65    66    1
    39    29    24   am
    40    25    24    2
    41    26    23    1
    42    24    23    1
    43    80    78   am
    44    10     8   ar
    45    10    11   ar
    46     8     6   ar
    47    66    69    1
    48    66    67    1
    49    23    22    1
    50    12    11    1
    51    77    78    1
    52    77    74    1
    53    69    70    1
    54    68    67    2
    55    78    79    2
    56    67    73   am
    57    11     9   ar
    58    73    74    1
    59     6     5    1
    60     6     7   ar
    61    22    15   am
    62    74    75    1
    63    47    48    1
    64     5     2    1
    65     4     3    2
    66    48    49    1
    67    49    50    2
    68     9     7   ar
    69    70    72   ar
    70    70    71   ar
    71    15    16    2
    72    15    14    1
    73     3     2    1
    74     3    13   am
    75     2     1    1
    76    75    76    2
    77    75    81   am
    78    14    13    1
    79    14    17    1
    80   105   107   ar
    81   105   103   ar
    82    81    82    1
    83   107   108   ar
    84   101   100    2
    85    98    99    1
    86    18    17    1
    87    18    19    1
    88    91    92    2
    89    91    90    1
    90   102   103    1
    91   102    99    1
    92   103   104   ar
    93    89    90    1
    94    89    83   am
    95   108   109    1
    96   108   106   ar
    97    82    83    1
    98    82    85    1
    99    90    93    1
   100    99   100    1
   101    83    84    2
   102    85    86    1
   103    20    19    1
   104    20    21    1
   105   104   106   ar
   106    96    95    2
   107    93    94    1
   108    95    97   am
   109    95    94    1
   110   116   115   ar
   111    86    87    2
   112    86    88   am
   113   110   111    1
   114   118   119    1
   115   118   112   am
   116   111   112    1
   117   111   114    1
   118   119   120    1
   119   115   114    1
   120   115   117   ar
   121   112   113    2
   122   120   121    2
