@<TRIPOS>MOLECULE
tmp/2c3wD02.pdb
 86 81 0 0 0
SMALL
GASTEIGER

@<TRIPOS>ATOM
      1  N         19.4980  -22.5280   33.6150 N.3    18  HIS18      -0.1241
      2  CA        18.6170  -23.6180   33.2390 C.3    18  HIS18       0.1621
      3  C         18.8890  -23.9800   31.7910 C.2    18  HIS18       0.2264
      4  O         18.8570  -23.1240   30.8690 O.2    18  HIS18      -0.2867
      5  CB        17.1780  -23.1230   33.4710 C.3    18  HIS18       0.0745
      6  CG        16.1000  -24.0560   33.0510 C.ar   18  HIS18       0.0817
      7  ND1       15.9670  -25.3390   33.5510 N.ar   18  HIS18      -0.2268
      8  CD2       15.0170  -23.8480   32.2590 C.ar   18  HIS18       0.1154
      9  CE1       14.8980  -25.8990   33.0100 C.ar   18  HIS18       0.1986
     10  NE2       14.2950  -25.0160   32.2300 N.ar   18  HIS18      -0.2212
     11  N         16.2720  -31.0660   29.7810 N.3    26  TRP26      -0.1241
     12  CA        16.4270  -29.8200   30.5470 C.3    26  TRP26       0.1605
     13  C         16.7010  -30.1000   32.0160 C.2    26  TRP26       0.2264
     14  O         16.1190  -31.0320   32.6270 O.2    26  TRP26      -0.2867
     15  CB        15.1980  -28.9190   30.4330 C.3    26  TRP26       0.0550
     16  CG        15.1390  -28.3080   29.0760 C.ar   26  TRP26       0.0003
     17  CD1       14.6750  -28.8790   27.9480 C.ar   26  TRP26       0.0946
     18  CD2       15.6490  -27.0050   28.6870 C.ar   26  TRP26       0.0152
     19  NE1       14.8520  -28.0380   26.8660 N.ar   26  TRP26      -0.2442
     20  CE2       15.4070  -26.8610   27.3070 C.ar   26  TRP26       0.0810
     21  CE3       16.2390  -25.9460   29.3800 C.ar   26  TRP26       0.0012
     22  CZ2       15.7700  -25.7180   26.5880 C.ar   26  TRP26       0.0191
     23  CZ3       16.5750  -24.7820   28.6690 C.ar   26  TRP26       0.0001
     24  CH2       16.3400  -24.6780   27.2940 C.ar   26  TRP26       0.0015
     25  N         14.2200  -27.3020   37.3840 N.3    29  LEU29      -0.1245
     26  CA        14.1570  -25.8830   37.7300 C.3    29  LEU29       0.1561
     27  C         14.5360  -25.6850   39.1600 C.2    29  LEU29       0.2260
     28  O         14.2500  -26.5900   40.0020 O.2    29  LEU29      -0.2867
     29  CB        12.7500  -25.3280   37.5180 C.3    29  LEU29       0.0270
     30  CG        12.3100  -25.1730   36.0780 C.3    29  LEU29       0.0019
     31  CD1       10.7530  -24.9920   36.0430 C.3    29  LEU29       0.0001
     32  CD2       12.9900  -24.0200   35.4090 C.3    29  LEU29       0.0001
     33  N         21.5760  -25.1460   25.1000 N.3    56  ARG56      -0.1245
     34  CA        20.6010  -24.0870   25.0660 C.3    56  ARG56       0.1563
     35  C         20.3260  -23.6900   26.4890 C.2    56  ARG56       0.2260
     36  O         20.1030  -24.5270   27.3520 O.2    56  ARG56      -0.2867
     37  CB        19.3150  -24.5500   24.4000 C.3    56  ARG56       0.0307
     38  CG        19.5050  -24.9910   23.0070 C.3    56  ARG56       0.0489
     39  CD        18.3340  -25.7790   22.4280 C.3    56  ARG56       0.2205
     40  NE        18.2140  -27.1320   23.0480 N.pl3  56  ARG56      -0.0865
     41  CZ        17.0810  -27.8180   23.1030 C.cat  56  ARG56       0.5346
     42  NH1       17.0370  -28.9770   23.7140 N.pl3  56  ARG56       0.1354
     43  NH2       15.9520  -27.3350   22.5580 N.pl3  56  ARG56       0.1354
     44  N         18.6790  -20.6110   29.4500 N.3    58  ALA58      -0.1245
     45  CA        18.0280  -19.4040   30.0180 C.3    58  ALA58       0.1562
     46  C         18.4710  -19.2190   31.4440 C.2    58  ALA58       0.2260
     47  O         18.7030  -20.1870   32.1300 O.2    58  ALA58      -0.2867
     48  CB        16.5120  -19.4800   29.9180 C.3    58  ALA58       0.0290
     49  N         11.9550  -16.8920   39.8340 N.3    64  GLY64      -0.1225
     50  CA        11.0140  -16.4530   38.8000 C.3    64  GLY64       0.1811
     51  C         11.2950  -15.2130   37.9710 C.2    64  GLY64       0.2280
     52  O         10.5070  -14.9280   37.0980 O.2    64  GLY64      -0.2866
     53  N         13.6420  -13.9580   34.9130 N.3    66  TRP66      -0.1241
     54  CA        14.4100  -14.6170   33.8670 C.3    66  TRP66       0.1605
     55  C         15.1420  -13.6910   32.9250 C.2    66  TRP66       0.2264
     56  O         14.7990  -12.4810   32.7910 O.2    66  TRP66      -0.2867
     57  CB        13.4850  -15.5020   33.0120 C.3    66  TRP66       0.0550
     58  CG        13.0010  -16.7070   33.7290 C.ar   66  TRP66       0.0003
     59  CD1       11.9280  -16.7700   34.5440 C.ar   66  TRP66       0.0946
     60  CD2       13.5430  -18.0510   33.6770 C.ar   66  TRP66       0.0152
     61  NE1       11.7670  -18.0490   35.0200 N.ar   66  TRP66      -0.2442
     62  CE2       12.7220  -18.8600   34.4810 C.ar   66  TRP66       0.0810
     63  CE3       14.6110  -18.6350   33.0190 C.ar   66  TRP66       0.0012
     64  CZ2       12.9720  -20.2220   34.7120 C.ar   66  TRP66       0.0191
     65  CZ3       14.8720  -20.0010   33.2250 C.ar   66  TRP66       0.0001
     66  CH2       14.0230  -20.7880   34.0440 C.ar   66  TRP66       0.0015
     67  N         16.0240  -14.7470   29.1280 N.3    68  ASN68      -0.1240
     68  CA        15.8260  -15.8400   28.1530 C.3    68  ASN68       0.1653
     69  C         15.9460  -15.3780   26.6560 C.2    68  ASN68       0.2266
     70  O         15.5100  -16.0430   25.6930 O.2    68  ASN68      -0.2867
     71  CB        14.5180  -16.5780   28.4040 C.3    68  ASN68       0.1155
     72  CG        13.3020  -15.6770   28.2030 C.2    68  ASN68       0.2627
     73  OD1       13.4350  -14.5840   27.6150 O.2    68  ASN68      -0.2716
     74  ND2       12.1050  -16.1310   28.6910 N.am   68  ASN68      -0.0877
     75  N         12.8500  -14.7160   24.8080 N.3    71  GLY71      -0.1225
     76  CA        12.1540  -15.9870   24.7650 C.3    71  GLY71       0.1811
     77  C         12.7990  -17.0510   23.8890 C.2    71  GLY71       0.2280
     78  O         12.2720  -18.1510   23.8780 O.2    71  GLY71      -0.2866
     79  N         16.0010  -18.1840   24.1130 N.3    73  ASP73      -0.1239
     80  CA        17.1750  -18.8210   24.7640 C.3    73  ASP73       0.1674
     81  C         18.4950  -18.5000   24.1470 C.2    73  ASP73       0.2266
     82  O         18.5770  -17.9330   23.0370 O.2    73  ASP73      -0.2867
     83  CB        17.0090  -20.3180   24.9180 C.3    73  ASP73       0.1410
     84  CG        15.7410  -20.6790   25.6350 C.2    73  ASP73       0.3668
     85  OD1       15.3260  -19.9600   26.5790 O.co2  73  ASP73      -0.2456
     86  OD2       15.1000  -21.6970   25.2830 O.co2  73  ASP73      -0.2456
@<TRIPOS>BOND
     1    39    38    1
     2    39    40    1
     3    43    41    1
     4    38    37    1
     5    82    81    2
     6    40    41    2
     7    41    42    1
     8    78    77    2
     9    77    76    1
    10    79    80    1
    11    81    80    1
    12    37    34    1
    13    80    83    1
    14    76    75    1
    15    83    84    1
    16    34    33    1
    17    34    35    1
    18    86    84   ar
    19    84    85   ar
    20    70    69    2
    21    35    36    2
    22    22    24   ar
    23    22    20   ar
    24    69    68    1
    25    19    20   ar
    26    19    17   ar
    27    24    23   ar
    28    20    18   ar
    29    73    72    2
    30    17    16   ar
    31    68    71    1
    32    68    67    1
    33    72    71    1
    34    72    74   am
    35    23    21   ar
    36    18    16   ar
    37    18    21   ar
    38    16    15    1
    39    44    45    1
    40    11    12    1
    41    48    45    1
    42    45    46    1
    43    15    12    1
    44    12    13    1
    45     4     3    2
    46    46    47    2
    47     3     2    1
    48    13    14    2
    49    10     8   ar
    50    10     9   ar
    51     8     6   ar
    52    56    55    2
    53    55    54    1
    54     9     7   ar
    55    57    58    1
    56    57    54    1
    57    63    65   ar
    58    63    60   ar
    59     6     5    1
    60     6     7   ar
    61    65    66   ar
    62     2     5    1
    63     2     1    1
    64    60    58   ar
    65    60    62   ar
    66    58    59   ar
    67    54    53    1
    68    66    64   ar
    69    62    64   ar
    70    62    61   ar
    71    59    61   ar
    72    32    30    1
    73    31    30    1
    74    30    29    1
    75    52    51    2
    76    25    26    1
    77    29    26    1
    78    26    27    1
    79    51    50    1
    80    50    49    1
    81    27    28    2
