@<TRIPOS>MOLECULE
tmp/2c40A00.pdb
 145 140 0 0 0
SMALL
GASTEIGER

@<TRIPOS>ATOM
      1  N         14.7340  -23.1250  -12.1590 N.3     9  ASP9       -0.1239
      2  CA        14.5080  -22.1110  -13.2050 C.3     9  ASP9        0.1674
      3  C         13.1720  -22.2030  -13.9310 C.2     9  ASP9        0.2266
      4  O         13.0880  -21.8860  -15.0800 O.2     9  ASP9       -0.2867
      5  CB        15.6700  -22.0360  -14.1860 C.3     9  ASP9        0.1410
      6  CG        15.8220  -23.2630  -15.0300 C.2     9  ASP9        0.3668
      7  OD1       16.5270  -23.1460  -16.0520 O.co2   9  ASP9       -0.2456
      8  OD2       15.2600  -24.3250  -14.6770 O.co2   9  ASP9       -0.2456
      9  N         10.9650  -24.0220  -15.4700 N.3    11  GLY11      -0.1225
     10  CA        10.3650  -24.9050  -16.5050 C.3    11  GLY11       0.1811
     11  C          9.2380  -25.7160  -15.8620 C.2    11  GLY11       0.2280
     12  O          9.0190  -25.6850  -14.6490 O.2    11  GLY11      -0.2866
     13  N          9.0790  -28.8960  -15.3970 N.3    13  ASP13      -0.1225
     14  CA         9.5400  -29.9480  -14.4680 C.3    13  ASP13       0.1805
     15  C         10.1660  -29.3930  -13.1720 C.2    13  ASP13       0.2597
     16  O         10.2020  -30.0970  -12.1670 O.2    13  ASP13      -0.2718
     17  CB        10.3950  -31.0470  -15.1650 C.3    13  ASP13       0.1424
     18  CG        11.6930  -30.5370  -15.7210 C.2    13  ASP13       0.3668
     19  OD1       11.9830  -29.3390  -15.4910 O.co2  13  ASP13      -0.2456
     20  OD2       12.4220  -31.3410  -16.3830 O.co2  13  ASP13      -0.2456
     21  N         10.6190  -28.1340  -13.1990 N.am   14  ASP14      -0.1974
     22  CA        11.0170  -27.4050  -11.9910 C.3    14  ASP14       0.1709
     23  C          9.8230  -27.1860  -11.0850 C.2    14  ASP14       0.2293
     24  O          9.8940  -27.3420   -9.8800 O.2    14  ASP14      -0.2864
     25  CB        11.5870  -26.0180  -12.3440 C.3    14  ASP14       0.1436
     26  CG        12.9030  -26.0930  -13.1030 C.2    14  ASP14       0.3671
     27  OD1       13.9750  -26.2190  -12.4600 O.co2  14  ASP14      -0.2456
     28  OD2       12.8830  -26.0440  -14.3540 O.co2  14  ASP14      -0.2456
     29  N         15.4830  -20.8710  -17.7150 N.3    38  ASP38      -0.1239
     30  CA        14.4630  -21.4520  -18.6030 C.3    38  ASP38       0.1674
     31  C         13.0530  -20.9530  -18.2700 C.2    38  ASP38       0.2266
     32  O         12.0820  -21.7010  -18.3080 O.2    38  ASP38      -0.2867
     33  CB        14.5300  -22.9520  -18.5200 C.3    38  ASP38       0.1410
     34  CG        13.8430  -23.6300  -19.6500 C.2    38  ASP38       0.3668
     35  OD1       13.5710  -24.8170  -19.4540 O.co2  38  ASP38      -0.2456
     36  OD2       13.5500  -22.9980  -20.6810 O.co2  38  ASP38      -0.2456
     37  N         18.3980  -19.1900  -22.5200 N.3    73  PHE73      -0.1241
     38  CA        17.5750  -20.2840  -23.0770 C.3    73  PHE73       0.1605
     39  C         16.7120  -19.7900  -24.2340 C.2    73  PHE73       0.2264
     40  O         16.4990  -18.5820  -24.3740 O.2    73  PHE73      -0.2867
     41  CB        16.6660  -20.8680  -21.9970 C.3    73  PHE73       0.0534
     42  CG        17.3210  -21.8970  -21.0870 C.ar   73  PHE73      -0.0203
     43  CD1       18.0780  -21.5080  -19.9690 C.ar   73  PHE73      -0.0042
     44  CD2       17.0920  -23.2320  -21.2680 C.ar   73  PHE73      -0.0042
     45  CE1       18.6520  -22.4050  -19.1490 C.ar   73  PHE73      -0.0003
     46  CE2       17.6400  -24.1760  -20.4050 C.ar   73  PHE73      -0.0003
     47  CZ        18.4490  -23.7710  -19.3640 C.ar   73  PHE73      -0.0000
     48  N         10.8130  -22.1000  -24.8830 N.3    77  TRP77      -0.1241
     49  CA        10.9050  -22.8980  -23.6440 C.3    77  TRP77       0.1605
     50  C         10.5910  -22.0450  -22.4070 C.2    77  TRP77       0.2264
     51  O          9.8780  -22.4500  -21.4860 O.2    77  TRP77      -0.2867
     52  CB        12.3290  -23.4270  -23.4990 C.3    77  TRP77       0.0550
     53  CG        12.7600  -24.3960  -24.5510 C.ar   77  TRP77       0.0003
     54  CD1       12.1330  -24.6700  -25.7600 C.ar   77  TRP77       0.0946
     55  CD2       13.9510  -25.2040  -24.5200 C.ar   77  TRP77       0.0152
     56  NE1       12.8700  -25.6100  -26.4500 N.ar   77  TRP77      -0.2442
     57  CE2       13.9780  -25.9570  -25.7080 C.ar   77  TRP77       0.0810
     58  CE3       14.9880  -25.3650  -23.5920 C.ar   77  TRP77       0.0012
     59  CZ2       15.0120  -26.8480  -25.9970 C.ar   77  TRP77       0.0191
     60  CZ3       16.0050  -26.2530  -23.8740 C.ar   77  TRP77       0.0001
     61  CH2       16.0150  -26.9830  -25.0630 C.ar   77  TRP77       0.0015
     62  N         17.9600  -27.2580   -9.9840 N.3   125  THR125     -0.1218
     63  CA        17.4140  -27.7900  -11.1780 C.3   125  THR125      0.1862
     64  C         17.4450  -26.8210  -12.3810 C.2   125  THR125      0.2287
     65  O         17.0250  -27.2060  -13.4600 O.2   125  THR125     -0.2866
     66  CB        16.0010  -28.3930  -10.9660 C.3   125  THR125      0.1770
     67  OG1       15.0450  -27.4040  -10.5380 O.3   125  THR125     -0.2211
     68  CG2       16.0660  -29.5160   -9.9770 C.3   125  THR125      0.0375
     69  N         20.9360  -31.0680  -11.4900 N.3   151  MET151     -0.1245
     70  CA        20.6450  -31.4240  -12.8480 C.3   151  MET151      0.1570
     71  C         21.5480  -30.6190  -13.7690 C.2   151  MET151      0.2261
     72  O         21.3810  -29.4130  -13.9830 O.2   151  MET151     -0.2867
     73  CB        19.1670  -31.1580  -13.1770 C.3   151  MET151      0.0387
     74  CG        18.6810  -31.9160  -14.4750 C.3   151  MET151      0.0595
     75  SD        19.2760  -31.2780  -16.0770 S.3   151  MET151     -0.1393
     76  CE        19.9390  -32.7430  -16.8020 C.3   151  MET151      0.0692
     77  N         22.2360  -31.2770  -25.4190 N.3   160  ASN160     -0.1240
     78  CA        20.8950  -30.8060  -25.8770 C.3   160  ASN160      0.1653
     79  C         20.9270  -29.3310  -26.2220 C.2   160  ASN160      0.2266
     80  O         19.8700  -28.6980  -26.5120 O.2   160  ASN160     -0.2867
     81  CB        19.8570  -31.0470  -24.8130 C.3   160  ASN160      0.1155
     82  CG        20.1740  -30.3010  -23.5090 C.2   160  ASN160      0.2627
     83  OD1       21.2900  -29.8330  -23.3080 O.2   160  ASN160     -0.2716
     84  ND2       19.1900  -30.1780  -22.6480 N.am  160  ASN160     -0.0877
     85  N         25.3340  -29.5500  -22.0780 N.3   171  GLU171     -0.1231
     86  CA        23.9710  -29.6150  -21.5950 C.3   171  GLU171      0.1699
     87  C         23.5820  -28.1850  -21.1800 C.2   171  GLU171      0.2592
     88  O         24.4490  -27.3770  -20.8330 O.2   171  GLU171     -0.2718
     89  CB        23.9330  -30.6250  -20.4620 C.3   171  GLU171      0.0402
     90  CG        22.7030  -30.6650  -19.6600 C.3   171  GLU171      0.1161
     91  CD        22.6110  -29.5450  -18.6550 C.2   171  GLU171      0.3649
     92  OE1       21.4510  -29.1790  -18.4450 O.co2 171  GLU171     -0.2457
     93  OE2       23.6650  -29.0240  -18.1180 O.co2 171  GLU171     -0.2457
     94  N         22.2820  -27.8580  -21.2640 N.am  172  TRP172     -0.1962
     95  CA        21.7820  -26.4860  -21.0900 C.3   172  TRP172      0.1771
     96  C         22.0350  -25.7890  -19.7550 C.2   172  TRP172      0.2619
     97  O         22.3540  -24.5890  -19.7320 O.2   172  TRP172     -0.2715
     98  CB        20.2560  -26.4010  -21.4480 C.3   172  TRP172      0.0590
     99  CG        20.0320  -25.8400  -22.8230 C.ar  172  TRP172      0.0006
    100  CD1       19.6220  -26.5130  -23.9370 C.ar  172  TRP172      0.0946
    101  CD2       20.3000  -24.5050  -23.2360 C.ar  172  TRP172      0.0152
    102  NE1       19.5700  -25.6650  -25.0090 N.ar  172  TRP172     -0.2442
    103  CE2       19.9940  -24.4240  -24.6050 C.ar  172  TRP172      0.0810
    104  CE3       20.7270  -23.3470  -22.5640 C.ar  172  TRP172      0.0012
    105  CZ2       20.1470  -23.2420  -25.3270 C.ar  172  TRP172      0.0191
    106  CZ3       20.8610  -22.1820  -23.2650 C.ar  172  TRP172      0.0001
    107  CH2       20.5740  -22.1320  -24.6370 C.ar  172  TRP172      0.0015
    108  N         21.7870  -26.4570  -18.6290 N.am  173  ASN173     -0.1972
    109  CA        22.0460  -25.8140  -17.3310 C.3   173  ASN173      0.1688
    110  C         23.5190  -25.3970  -17.1650 C.2   173  ASN173      0.2292
    111  O         23.7990  -24.3460  -16.5780 O.2   173  ASN173     -0.2864
    112  CB        21.5550  -26.6720  -16.1500 C.3   173  ASN173      0.1181
    113  CG        20.0140  -26.7220  -16.0510 C.2   173  ASN173      0.2629
    114  OD1       19.3150  -25.8680  -16.6070 O.2   173  ASN173     -0.2716
    115  ND2       19.4940  -27.6890  -15.2950 N.am  173  ASN173     -0.0877
    116  N         22.0830  -35.5430  -18.4770 N.3   196  LEU196     -0.1245
    117  CA        21.1490  -35.9560  -19.5100 C.3   196  LEU196      0.1561
    118  C         20.9430  -37.4800  -19.5930 C.2   196  LEU196      0.2260
    119  O         19.7770  -37.9170  -19.7360 O.2   196  LEU196     -0.2867
    120  CB        21.5470  -35.4050  -20.8700 C.3   196  LEU196      0.0270
    121  CG        21.5310  -33.8590  -20.9930 C.3   196  LEU196      0.0019
    122  CD1       22.1290  -33.4210  -22.3430 C.3   196  LEU196      0.0001
    123  CD2       20.1200  -33.2560  -20.8220 C.3   196  LEU196      0.0001
    124  N         14.0240  -34.6850  -16.1890 N.3   238  TRP238     -0.1227
    125  CA        15.3400  -34.5180  -15.5990 C.3   238  TRP238      0.1737
    126  C         15.3350  -33.9030  -14.2320 C.2   238  TRP238      0.2595
    127  O         15.9780  -34.4100  -13.3360 O.2   238  TRP238     -0.2718
    128  CB        16.1830  -33.6280  -16.4660 C.3   238  TRP238      0.0564
    129  CG        16.5970  -34.2870  -17.6650 C.ar  238  TRP238      0.0003
    130  CD1       17.5410  -35.2410  -17.7720 C.ar  238  TRP238      0.0946
    131  CD2       16.0970  -34.0450  -18.9660 C.ar  238  TRP238      0.0152
    132  NE1       17.6520  -35.6390  -19.0800 N.ar  238  TRP238     -0.2442
    133  CE2       16.7830  -34.9120  -19.8390 C.ar  238  TRP238      0.0810
    134  CE3       15.1020  -33.2140  -19.4740 C.ar  238  TRP238      0.0012
    135  CZ2       16.5430  -34.9500  -21.2210 C.ar  238  TRP238      0.0191
    136  CZ3       14.8540  -33.2550  -20.8500 C.ar  238  TRP238      0.0001
    137  CH2       15.5770  -34.1190  -21.7020 C.ar  238  TRP238      0.0015
    138  N         14.5990  -32.8160  -14.0880 N.am  239  ASP239     -0.1974
    139  CA        14.5160  -32.1080  -12.8170 C.3   239  ASP239      0.1709
    140  C         13.7370  -32.8930  -11.7330 C.2   239  ASP239      0.2293
    141  O         14.1210  -32.8940  -10.5630 O.2   239  ASP239     -0.2864
    142  CB        13.9050  -30.7380  -13.0450 C.3   239  ASP239      0.1436
    143  CG        14.7110  -29.9080  -14.0360 C.2   239  ASP239      0.3671
    144  OD1       15.8930  -30.2690  -14.3190 O.co2 239  ASP239     -0.2456
    145  OD2       14.1950  -28.8650  -14.4820 O.co2 239  ASP239     -0.2456
@<TRIPOS>BOND
     1    80    79    2
     2    56    54   ar
     3    56    57   ar
     4    79    78    1
     5    59    57   ar
     6    59    61   ar
     7    78    77    1
     8    78    81    1
     9    54    53   ar
    10    57    55   ar
    11   105   107   ar
    12   105   103   ar
    13    61    60   ar
    14   102   103   ar
    15   102   100   ar
    16    48    49    1
    17    81    82    1
    18   107   106   ar
    19   103   101   ar
    20    53    55   ar
    21    53    52    1
    22    55    58   ar
    23    40    39    2
    24    39    38    1
    25   100    99   ar
    26    60    58   ar
    27    49    52    1
    28    49    50    1
    29    82    83    2
    30    82    84   am
    31   106   104   ar
    32   101    99   ar
    33   101   104   ar
    34    38    37    1
    35    38    41    1
    36    99    98    1
    37    50    51    2
    38   122   121    1
    39    85    86    1
    40    41    42    1
    41   137   135   ar
    42   137   136   ar
    43    86    87    1
    44    86    89    1
    45    98    95    1
    46    44    42   ar
    47    44    46   ar
    48    94    87   am
    49    94    95    1
    50   135   133   ar
    51    87    88    2
    52    95    96    1
    53    42    43   ar
    54   121   120    1
    55   121   123    1
    56   120   117    1
    57   136   134   ar
    58    36    34   ar
    59    89    90    1
    60    46    47   ar
    61    43    45   ar
    62   133   132   ar
    63   133   131   ar
    64    96    97    2
    65    96   108   am
    66   119   118    2
    67    90    91    1
    68    34    35   ar
    69    34    33    1
    70   118   117    1
    71   117   116    1
    72   134   131   ar
    73    47    45   ar
    74   132   130   ar
    75   131   129   ar
    76    91    92   ar
    77    91    93   ar
    78   108   109    1
    79    30    33    1
    80    30    31    1
    81    30    29    1
    82    32    31    2
    83   130   129   ar
    84   129   128    1
    85   109   110    1
    86   109   112    1
    87   110   111    2
    88    76    75    1
    89   114   113    2
    90    10    11    1
    91    10     9    1
    92   128   125    1
    93    20    18   ar
    94   124   125    1
    95   112   113    1
    96    75    74    1
    97     7     6   ar
    98   113   115   am
    99    11    12    2
   100    18    19   ar
   101    18    17    1
   102   125   126    1
   103    13    14    1
   104    17    14    1
   105     4     3    2
   106     6     8   ar
   107     6     5    1
   108   145   143   ar
   109    74    73    1
   110    14    15    1
   111    28    26   ar
   112   144   143   ar
   113   126   138   am
   114   126   127    2
   115     5     2    1
   116   138   139    1
   117   143   142    1
   118    72    71    2
   119     3     2    1
   120    71    70    1
   121    65    64    2
   122     2     1    1
   123    21    15   am
   124    21    22    1
   125    73    70    1
   126    15    16    2
   127    26    27   ar
   128    26    25    1
   129   142   139    1
   130    70    69    1
   131   139   140    1
   132    64    63    1
   133    25    22    1
   134    22    23    1
   135   140   141    2
   136    63    66    1
   137    63    62    1
   138    23    24    2
   139    66    67    1
   140    66    68    1
