@<TRIPOS>MOLECULE
tmp/2c47C00.pdb
 173 164 0 0 0
SMALL
GASTEIGER

@<TRIPOS>ATOM
      1  N         38.3390   28.1060   63.9440 N.3     7  ILE7       -0.1245
      2  CA        39.5920   27.4300   64.2560 C.3     7  ILE7        0.1561
      3  C         40.6810   28.0290   63.3610 C.2     7  ILE7        0.2260
      4  O         41.8660   27.8700   63.6160 O.2     7  ILE7       -0.2867
      5  CB        39.4760   25.8910   64.0420 C.3     7  ILE7        0.0252
      6  CG1       39.0480   25.5560   62.6080 C.3     7  ILE7        0.0019
      7  CG2       38.4750   25.3030   65.0280 C.3     7  ILE7        0.0019
      8  CD1       38.9540   24.0530   62.3120 C.3     7  ILE7        0.0001
      9  N         38.5740   29.9680   58.9740 N.3     9  LEU9       -0.1245
     10  CA        38.4550   28.5190   58.9550 C.3     9  LEU9        0.1561
     11  C         37.6050   28.1320   60.1540 C.2     9  LEU9        0.2260
     12  O         37.8510   28.6090   61.2610 O.2     9  LEU9       -0.2867
     13  CB        39.8240   27.8790   59.0690 C.3     9  LEU9        0.0270
     14  CG        39.8600   26.3610   58.9330 C.3     9  LEU9        0.0019
     15  CD1       39.7960   25.9580   57.4730 C.3     9  LEU9        0.0001
     16  CD2       41.1080   25.8040   59.5440 C.3     9  LEU9        0.0001
     17  N         36.8000   20.4920   58.2260 N.3    22  ALA22      -0.1245
     18  CA        37.1930   21.8840   58.3080 C.3    22  ALA22       0.1562
     19  C         36.4900   22.6110   57.1820 C.2    22  ALA22       0.2260
     20  O         36.3440   22.0600   56.0890 O.2    22  ALA22      -0.2867
     21  CB        38.6820   22.0090   58.1630 C.3    22  ALA22       0.0290
     22  N         36.4920   26.2610   55.0940 N.3    24  LYS24      -0.1245
     23  CA        37.1210   27.5440   54.8140 C.3    24  LYS24       0.1561
     24  C         36.0240   28.4050   54.2000 C.2    24  LYS24       0.2260
     25  O         35.3170   27.9480   53.3190 O.2    24  LYS24      -0.2867
     26  CB        38.3120   27.3580   53.8530 C.3    24  LYS24       0.0271
     27  CG        39.2450   28.5550   53.7300 C.3    24  LYS24       0.0035
     28  CD        39.9650   28.8660   55.0270 C.3    24  LYS24       0.0206
     29  CE        40.9010   30.0470   54.8410 C.3    24  LYS24       0.1093
     30  NZ        41.6670   30.3580   56.0760 N.3    24  LYS24      -0.1314
     31  N         41.7450   28.3120   44.8230 N.3    38  GLU38      -0.1245
     32  CA        42.3810   27.3570   45.7140 C.3    38  GLU38       0.1567
     33  C         41.6920   26.0000   45.6520 C.2    38  GLU38       0.2260
     34  O         42.3540   24.9650   45.6990 O.2    38  GLU38      -0.2867
     35  CB        42.3790   27.8730   47.1410 C.3    38  GLU38       0.0388
     36  CG        43.2160   27.0380   48.0820 C.3    38  GLU38       0.1160
     37  CD        43.2150   27.5960   49.4680 C.2    38  GLU38       0.3649
     38  OE1       43.6630   26.8850   50.3960 O.co2  38  GLU38      -0.2457
     39  OE2       42.7520   28.7470   49.6230 O.co2  38  GLU38      -0.2457
     40  N         43.3730   22.2520   44.7310 N.3    42  TYR42      -0.1241
     41  CA        43.1490   21.0300   45.5290 C.3    42  TYR42       0.1605
     42  C         42.5940   19.8710   44.6800 C.2    42  TYR42       0.2264
     43  O         42.8870   18.6970   44.9410 O.2    42  TYR42      -0.2867
     44  CB        42.1690   21.2850   46.6780 C.3    42  TYR42       0.0534
     45  CG        42.7840   21.8280   47.9490 C.ar   42  TYR42      -0.0201
     46  CD1       42.5610   23.1420   48.3360 C.ar   42  TYR42      -0.0009
     47  CD2       43.5650   21.0200   48.7790 C.ar   42  TYR42      -0.0009
     48  CE1       43.1070   23.6550   49.5130 C.ar   42  TYR42       0.0417
     49  CE2       44.1290   21.5260   49.9650 C.ar   42  TYR42       0.0417
     50  CZ        43.8940   22.8520   50.3270 C.ar   42  TYR42       0.1957
     51  OH        44.4230   23.3990   51.4920 O.3    42  TYR42      -0.2866
     52  N         44.7690   17.2360   52.0370 N.3    52  PRO52      -0.2116
     53  CA        43.4130   16.9770   52.5390 C.3    52  PRO52       0.1372
     54  C         42.4140   16.7590   51.3990 C.2    52  PRO52       0.2244
     55  O         42.5300   17.3930   50.3570 O.2    52  PRO52      -0.2868
     56  CB        43.0770   18.2500   53.3370 C.3    52  PRO52       0.0268
     57  CG        44.0190   19.3030   52.8390 C.3    52  PRO52       0.0207
     58  CD        45.2580   18.5850   52.3960 C.3    52  PRO52       0.0892
     59  N         36.7200   20.6990   53.6580 N.3    67  LEU67      -0.1231
     60  CA        37.8870   19.8430   53.5290 C.3    67  LEU67       0.1693
     61  C         37.9940   18.8800   54.6930 C.2    67  LEU67       0.2592
     62  O         37.4180   19.0930   55.7660 O.2    67  LEU67      -0.2718
     63  CB        39.1810   20.6670   53.4280 C.3    67  LEU67       0.0284
     64  CG        39.1370   22.0870   52.8500 C.3    67  LEU67       0.0019
     65  CD1       39.2100   23.0860   53.9740 C.3    67  LEU67       0.0001
     66  CD2       40.2870   22.3380   51.8870 C.3    67  LEU67       0.0001
     67  N         38.7540   17.8210   54.4570 N.am   68  GLU68      -0.1966
     68  CA        39.1420   16.8880   55.4940 C.3    68  GLU68       0.1733
     69  C         39.8130   17.6300   56.6430 C.2    68  GLU68       0.2616
     70  O         40.5860   18.5620   56.4230 O.2    68  GLU68      -0.2715
     71  CB        40.0930   15.8530   54.8960 C.3    68  GLU68       0.0429
     72  CG        40.6350   14.8220   55.8590 C.3    68  GLU68       0.1163
     73  CD        41.4990   13.7970   55.1570 C.2    68  GLU68       0.3649
     74  OE1       41.9370   12.8460   55.8310 O.co2  68  GLU68      -0.2457
     75  OE2       41.7430   13.9360   53.9360 O.co2  68  GLU68      -0.2457
     76  N         39.4910   17.2130   57.8640 N.am   69  LEU69      -0.1963
     77  CA        40.0950   17.7640   59.0610 C.3    69  LEU69       0.1728
     78  C         41.3220   16.9290   59.4190 C.2    69  LEU69       0.2616
     79  O         41.2260   15.7100   59.5970 O.2    69  LEU69      -0.2715
     80  CB        39.0950   17.7530   60.2150 C.3    69  LEU69       0.0311
     81  CG        39.6320   18.2880   61.5490 C.3    69  LEU69       0.0022
     82  CD1       39.7970   19.8100   61.5200 C.3    69  LEU69       0.0001
     83  CD2       38.7220   17.8550   62.6900 C.3    69  LEU69       0.0001
     84  N         42.4670   17.6010   59.5180 N.am   70  LEU70      -0.1963
     85  CA        43.7450   16.9580   59.8050 C.3    70  LEU70       0.1728
     86  C         44.2180   17.3370   61.2100 C.2    70  LEU70       0.2617
     87  O         43.4930   17.9880   61.9530 O.2    70  LEU70      -0.2715
     88  CB        44.7600   17.3580   58.7410 C.3    70  LEU70       0.0311
     89  CG        44.4290   16.8390   57.3380 C.3    70  LEU70       0.0022
     90  CD1       45.1890   17.6350   56.2880 C.3    70  LEU70       0.0001
     91  CD2       44.7270   15.3480   57.2140 C.3    70  LEU70       0.0001
     92  N         45.4230   16.9230   61.5810 N.am   71  GLY71      -0.1941
     93  CA        45.9470   17.1830   62.9150 C.3    71  GLY71       0.1998
     94  C         46.6910   18.5030   63.0070 C.2    71  GLY71       0.2481
     95  O         46.4840   19.3990   62.1860 O.2    71  GLY71      -0.2729
     96  N         47.5460   18.6380   64.0320 N.am   72  PRO72      -0.2715
     97  CA        48.3810   19.8230   64.2340 C.3    72  PRO72       0.1536
     98  C         49.4670   20.0190   63.1730 C.2    72  PRO72       0.2599
     99  O         49.8550   19.0790   62.4860 O.2    72  PRO72      -0.2715
    100  CB        49.0070   19.5860   65.6140 C.3    72  PRO72       0.0310
    101  CG        48.1670   18.4940   66.2540 C.3    72  PRO72       0.0237
    102  CD        47.7180   17.6560   65.1190 C.3    72  PRO72       0.0939
    103  N         49.9400   21.2520   63.0620 N.am   73  SER73      -0.1950
    104  CA        51.0010   21.5940   62.1380 C.3    73  SER73       0.1924
    105  C         52.3410   21.2180   62.7290 C.2    73  SER73       0.2314
    106  O         52.4450   20.9000   63.9180 O.2    73  SER73      -0.2863
    107  CB        50.9800   23.0920   61.8320 C.3    73  SER73       0.2116
    108  OG        51.2150   23.8620   63.0050 O.3    73  SER73      -0.2180
    109  N         54.6470   23.3670   63.1440 N.3    75  GLU75      -0.1231
    110  CA        54.9550   24.4430   64.0820 C.3    75  GLU75       0.1699
    111  C         54.3540   24.1500   65.4430 C.2    75  GLU75       0.2592
    112  O         55.0240   24.3250   66.4570 O.2    75  GLU75      -0.2718
    113  CB        54.4680   25.8030   63.5820 C.3    75  GLU75       0.0402
    114  CG        54.8650   26.9990   64.4930 C.3    75  GLU75       0.1161
    115  CD        56.3400   27.4270   64.3890 C.2    75  GLU75       0.3649
    116  OE1       57.1720   26.6540   63.8700 O.co2  75  GLU75      -0.2457
    117  OE2       56.6710   28.5560   64.8300 O.co2  75  GLU75      -0.2457
    118  N         53.0930   23.7090   65.4620 N.am   76  ASP76      -0.1974
    119  CA        52.4100   23.3290   66.7090 C.3    76  ASP76       0.1709
    120  C         53.1910   22.2700   67.4630 C.2    76  ASP76       0.2293
    121  O         53.3710   22.3630   68.6770 O.2    76  ASP76      -0.2864
    122  CB        51.0270   22.7510   66.4210 C.3    76  ASP76       0.1436
    123  CG        50.0300   23.7940   65.9560 C.2    76  ASP76       0.3671
    124  OD1       50.2090   24.9940   66.2870 O.co2  76  ASP76      -0.2456
    125  OD2       49.0510   23.3930   65.2730 O.co2  76  ASP76      -0.2456
    126  N         53.8050   25.9050   59.5610 N.3   117  GLU117     -0.1231
    127  CA        52.3680   26.0520   59.7740 C.3   117  GLU117      0.1699
    128  C         51.5310   25.3420   58.7040 C.2   117  GLU117      0.2592
    129  O         50.3990   24.9610   58.9620 O.2   117  GLU117     -0.2718
    130  CB        51.9960   27.5440   59.7750 C.3   117  GLU117      0.0402
    131  CG        52.5060   28.3330   60.9910 C.3   117  GLU117      0.1161
    132  CD        53.9320   28.8880   60.8480 C.2   117  GLU117      0.3649
    133  OE1       54.2230   29.9000   61.5040 O.co2 117  GLU117     -0.2457
    134  OE2       54.7610   28.3460   60.1030 O.co2 117  GLU117     -0.2457
    135  N         52.0770   25.1790   57.5000 N.am  118  ASN118     -0.1974
    136  CA        51.3230   24.6310   56.3690 C.3   118  ASN118      0.1688
    137  C         51.5640   23.1450   56.1100 C.2   118  ASN118      0.2292
    138  O         51.1420   22.6170   55.0760 O.2   118  ASN118     -0.2864
    139  CB        51.6180   25.4350   55.0970 C.3   118  ASN118      0.1181
    140  CG        50.8320   26.7190   55.0230 C.2   118  ASN118      0.2629
    141  OD1       49.9090   26.9360   55.8010 O.2   118  ASN118     -0.2716
    142  ND2       51.1780   27.5720   54.0780 N.am  118  ASN118     -0.0877
    143  N         50.7650   19.5090   58.0250 N.3   120  LEU120     -0.1245
    144  CA        49.9850   18.9640   59.1120 C.3   120  LEU120      0.1561
    145  C         50.1090   17.4740   59.1450 C.2   120  LEU120      0.2260
    146  O         50.0430   16.8130   58.1060 O.2   120  LEU120     -0.2867
    147  CB        48.5020   19.2760   58.9170 C.3   120  LEU120      0.0270
    148  CG        48.0730   20.7310   58.7230 C.3   120  LEU120      0.0019
    149  CD1       46.5630   20.8070   58.8110 C.3   120  LEU120      0.0001
    150  CD2       48.7030   21.6550   59.7480 C.3   120  LEU120      0.0001
    151  N         48.9660   21.8210   52.9770 N.3   132  ILE132     -0.1231
    152  CA        47.7460   22.6070   52.9140 C.3   132  ILE132      0.1692
    153  C         48.0290   24.0190   52.4090 C.2   132  ILE132      0.2592
    154  O         49.1730   24.4250   52.2860 O.2   132  ILE132     -0.2718
    155  CB        47.0920   22.7180   54.3190 C.3   132  ILE132      0.0266
    156  CG1       48.0300   23.4430   55.2920 C.3   132  ILE132      0.0019
    157  CG2       46.7470   21.3400   54.8680 C.3   132  ILE132      0.0020
    158  CD1       47.3950   23.7840   56.5910 C.3   132  ILE132      0.0001
    159  N         46.9570   24.7450   52.1250 N.am  133  ASP133     -0.1974
    160  CA        46.9730   26.1790   51.8090 C.3   133  ASP133      0.1709
    161  C         47.7050   26.5010   50.4940 C.2   133  ASP133      0.2293
    162  O         48.9070   26.7950   50.4720 O.2   133  ASP133     -0.2864
    163  CB        47.4630   27.0290   52.9950 C.3   133  ASP133      0.1436
    164  CG        47.0470   28.5000   52.8800 C.2   133  ASP133      0.3671
    165  OD1       47.2620   29.2650   53.8600 O.co2 133  ASP133     -0.2456
    166  OD2       46.4980   28.8950   51.8190 O.co2 133  ASP133     -0.2456
    167  N         40.7800   20.9080   68.0610 N.3   282  PRO282     -0.2116
    168  CA        39.5980   21.7600   68.2210 C.3   282  PRO282      0.1372
    169  C         38.4080   21.0130   68.8470 C.2   282  PRO282      0.2244
    170  O         37.5350   21.6390   69.4570 O.2   282  PRO282     -0.2868
    171  CB        39.2770   22.1850   66.7810 C.3   282  PRO282      0.0268
    172  CG        39.8480   21.1200   65.9230 C.3   282  PRO282      0.0207
    173  CD        41.0440   20.5810   66.6440 C.3   282  PRO282      0.0892
@<TRIPOS>BOND
     1    42    43    2
     2    42    41    1
     3    40    41    1
     4    31    32    1
     5    41    44    1
     6    33    34    2
     7    33    32    1
     8    32    35    1
     9    44    45    1
    10    35    36    1
    11    45    46   ar
    12    45    47   ar
    13    36    37    1
    14    46    48   ar
    15    47    49   ar
    16    37    39   ar
    17    37    38   ar
    18    48    50   ar
    19    49    50   ar
    20    50    51    1
    21    55    54    2
    22   162   161    2
    23   161   160    1
    24    54    53    1
    25   160   159    1
    26   160   163    1
    27   166   164   ar
    28    66    64    1
    29    52    58    1
    30    52    53    1
    31   159   153   am
    32   154   153    2
    33    58    57    1
    34   153   152    1
    35    53    56    1
    36    57    56    1
    37    64    63    1
    38    64    65    1
    39   164   163    1
    40   164   165   ar
    41   152   151    1
    42   152   155    1
    43    25    24    2
    44    63    60    1
    45    60    59    1
    46    60    61    1
    47    27    26    1
    48    27    28    1
    49    26    23    1
    50    75    73   ar
    51   142   140   am
    52    24    23    1
    53   155   157    1
    54   155   156    1
    55    67    61   am
    56    67    68    1
    57    61    62    2
    58    23    22    1
    59    29    28    1
    60    29    30    1
    61    71    68    1
    62    71    72    1
    63   140   139    1
    64   140   141    2
    65   138   137    2
    66   139   136    1
    67    73    74   ar
    68    73    72    1
    69   156   158    1
    70    68    69    1
    71    20    19    2
    72   137   136    1
    73    90    89    1
    74   136   135    1
    75    70    69    2
    76    69    76   am
    77    19    18    1
    78    91    89    1
    79    89    88    1
    80    15    14    1
    81   135   128   am
    82    76    77    1
    83   143   144    1
    84   146   145    2
    85    21    18    1
    86    17    18    1
    87   128   129    2
    88   128   127    1
    89   148   149    1
    90   148   147    1
    91   148   150    1
    92    88    85    1
    93   147   144    1
    94    14    13    1
    95    14    16    1
    96    10     9    1
    97    10    13    1
    98    10    11    1
    99    77    78    1
   100    77    80    1
   101   144   145    1
   102    78    84   am
   103    78    79    2
   104    84    85    1
   105   126   127    1
   106   127   130    1
   107   130   131    1
   108    85    86    1
   109   134   132   ar
   110    11    12    2
   111    80    81    1
   112   132   131    1
   113   132   133   ar
   114    86    92   am
   115    86    87    2
   116    82    81    1
   117    81    83    1
   118    92    93    1
   119   107   104    1
   120   107   108    1
   121   104   105    1
   122   104   103    1
   123    95    94    2
   124     8     6    1
   125    99    98    2
   126     6     5    1
   127   105   106    2
   128    93    94    1
   129    94    96   am
   130   103    98   am
   131   109   110    1
   132    98    97    1
   133     3     4    2
   134     3     2    1
   135   113   110    1
   136   113   114    1
   137   116   115   ar
   138     1     2    1
   139    96    97    1
   140    96   102    1
   141     5     2    1
   142     5     7    1
   143   110   111    1
   144    97   100    1
   145   115   114    1
   146   115   117   ar
   147   102   101    1
   148   125   123   ar
   149   111   118   am
   150   111   112    2
   151   118   119    1
   152   100   101    1
   153   172   173    1
   154   172   171    1
   155   123   124   ar
   156   123   122    1
   157   122   119    1
   158   173   167    1
   159   119   120    1
   160   171   168    1
   161   120   121    2
   162   167   168    1
   163   168   169    1
   164   169   170    2
