@<TRIPOS>MOLECULE
tmp/2c49A00.pdb
 124 112 0 0 0
SMALL
GASTEIGER

@<TRIPOS>ATOM
      1  N         64.5420   19.9880   55.1440 N.3    11  HIS11      -0.1241
      2  CA        64.5140   19.5170   53.7620 C.3    11  HIS11       0.1621
      3  C         65.6800   18.6400   53.3540 C.2    11  HIS11       0.2264
      4  O         66.8440   18.9320   53.6700 O.2    11  HIS11      -0.2867
      5  CB        64.5310   20.7120   52.8060 C.3    11  HIS11       0.0745
      6  CG        63.3620   21.6350   52.9670 C.ar   11  HIS11       0.0817
      7  ND1       62.0570   21.2450   52.7390 N.ar   11  HIS11      -0.2268
      8  CD2       63.3150   22.9480   53.2980 C.ar   11  HIS11       0.1154
      9  CE1       61.2600   22.2840   52.9260 C.ar   11  HIS11       0.1986
     10  NE2       62.0010   23.3160   53.2980 N.ar   11  HIS11      -0.2212
     11  N         66.7130   17.6900   49.4090 N.3    13  ALA13      -0.1245
     12  CA        66.3470   18.3120   48.1280 C.3    13  ALA13       0.1562
     13  C         67.3660   17.9990   47.0580 C.2    13  ALA13       0.2260
     14  O         68.4850   17.6340   47.3870 O.2    13  ALA13      -0.2867
     15  CB        66.2300   19.8540   48.3050 C.3    13  ALA13       0.0290
     16  N         69.3430   19.9450   43.9820 N.3    15  ASP15      -0.1239
     17  CA        69.7580   21.3050   43.7280 C.3    15  ASP15       0.1674
     18  C         70.3250   21.4290   42.3240 C.2    15  ASP15       0.2266
     19  O         71.1410   20.5820   41.9040 O.2    15  ASP15      -0.2867
     20  CB        70.9500   21.6310   44.6260 C.3    15  ASP15       0.1410
     21  CG        70.5780   21.8810   46.0600 C.2    15  ASP15       0.3668
     22  OD1       69.3680   21.9010   46.4490 O.co2  15  ASP15      -0.2456
     23  OD2       71.4850   22.1350   46.8870 O.co2  15  ASP15      -0.2456
     24  N         71.2560   17.8150   47.9630 N.3    40  GLY40      -0.1210
     25  CA        71.0700   19.0830   48.6480 C.3    40  GLY40       0.1956
     26  C         70.0100   19.0170   49.7320 C.2    40  GLY40       0.2612
     27  O         69.6570   17.9190   50.1820 O.2    40  GLY40      -0.2717
     28  N         69.4950   20.1890   50.1210 N.am   41  GLY41      -0.1942
     29  CA        68.5660   20.3240   51.2260 C.3    41  GLY41       0.2014
     30  C         69.3810   20.4890   52.5070 C.2    41  GLY41       0.2638
     31  O         70.2280   19.6440   52.8160 O.2    41  GLY41      -0.2714
     32  N         69.1560   21.5970   53.2070 N.am   42  ALA42      -0.1977
     33  CA        69.8900   21.9250   54.4500 C.3    42  ALA42       0.1597
     34  C         70.0050   20.8190   55.4930 C.2    42  ALA42       0.2287
     35  O         71.0760   20.6250   56.0980 O.2    42  ALA42      -0.2864
     36  CB        69.3160   23.1850   55.1190 C.3    42  ALA42       0.0319
     37  N         72.1360   18.0450   54.0600 N.3    45  ASN45      -0.1240
     38  CA        73.5220   18.5140   53.8780 C.3    45  ASN45       0.1653
     39  C         74.2560   18.4030   55.2300 C.2    45  ASN45       0.2266
     40  O         75.4060   17.9590   55.3130 O.2    45  ASN45      -0.2867
     41  CB        73.5370   19.9870   53.4620 C.3    45  ASN45       0.1155
     42  CG        73.1390   20.2300   52.0130 C.2    45  ASN45       0.2627
     43  OD1       73.1610   19.3140   51.1480 O.2    45  ASN45      -0.2716
     44  ND2       72.7790   21.5040   51.7220 N.am   45  ASN45      -0.0877
     45  N         65.6660   22.8830   44.4050 N.3    97  ALA97      -0.1245
     46  CA        66.1590   24.2550   44.5090 C.3    97  ALA97       0.1562
     47  C         66.8780   24.6780   43.2230 C.2    97  ALA97       0.2260
     48  O         67.6140   23.8850   42.6430 O.2    97  ALA97      -0.2867
     49  CB        67.1030   24.3730   45.7280 C.3    97  ALA97       0.0290
     50  N         69.4940   27.5920   42.3650 N.3    99  ILE99      -0.1245
     51  CA        70.3780   28.4760   43.1200 C.3    99  ILE99       0.1561
     52  C         71.2930   29.2220   42.1640 C.2    99  ILE99       0.2260
     53  O         71.9980   28.6060   41.3470 O.2    99  ILE99      -0.2867
     54  CB        71.1950   27.6240   44.1290 C.3    99  ILE99       0.0252
     55  CG1       70.2240   26.8990   45.0870 C.3    99  ILE99       0.0019
     56  CG2       72.2230   28.4870   44.8940 C.3    99  ILE99       0.0019
     57  CD1       70.8330   25.7480   45.8660 C.3    99  ILE99       0.0001
     58  N         67.5810   32.1910   45.4770 N.3   109  THR109     -0.1218
     59  CA        67.1380   30.8350   45.1910 C.3   109  THR109      0.1862
     60  C         65.6510   30.8120   44.9630 C.2   109  THR109      0.2287
     61  O         64.9190   31.7010   45.4170 O.2   109  THR109     -0.2866
     62  CB        67.5340   29.8080   46.3040 C.3   109  THR109      0.1770
     63  OG1       66.6710   29.9850   47.4390 O.3   109  THR109     -0.2211
     64  CG2       68.9590   30.0260   46.8530 C.3   109  THR109      0.0375
     65  N         62.7420   27.7620   45.3920 N.3   111  PHE111     -0.1241
     66  CA        62.6270   26.4810   46.0730 C.3   111  PHE111      0.1605
     67  C         61.2080   25.9530   45.9090 C.2   111  PHE111      0.2264
     68  O         60.2360   26.6290   46.2560 O.2   111  PHE111     -0.2867
     69  CB        63.0310   26.6190   47.5370 C.3   111  PHE111      0.0534
     70  CG        63.1650   25.3240   48.2590 C.ar  111  PHE111     -0.0203
     71  CD1       64.3220   24.5480   48.1310 C.ar  111  PHE111     -0.0042
     72  CD2       62.1330   24.8670   49.0690 C.ar  111  PHE111     -0.0042
     73  CE1       64.4530   23.3370   48.8300 C.ar  111  PHE111     -0.0003
     74  CE2       62.2400   23.6560   49.7510 C.ar  111  PHE111     -0.0003
     75  CZ        63.4060   22.9030   49.6660 C.ar  111  PHE111     -0.0000
     76  N         66.1300   24.6550   58.1720 N.3   136  THR136     -0.1218
     77  CA        65.0140   25.0060   57.2740 C.3   136  THR136      0.1862
     78  C         63.7840   24.1710   57.5900 C.2   136  THR136      0.2287
     79  O         63.7330   23.4820   58.6420 O.2   136  THR136     -0.2866
     80  CB        65.3770   24.8800   55.7290 C.3   136  THR136      0.1770
     81  OG1       65.6590   23.5180   55.3910 O.3   136  THR136     -0.2211
     82  CG2       66.6970   25.6240   55.3900 C.3   136  THR136      0.0375
     83  N         66.8330   29.7680   54.6430 N.3   161  GLN161     -0.1231
     84  CA        66.1470   30.3400   53.4870 C.3   161  GLN161      0.1698
     85  C         64.6390   30.3550   53.6760 C.2   161  GLN161      0.2592
     86  O         63.9530   31.1670   53.0780 O.2   161  GLN161     -0.2718
     87  CB        66.5410   29.5520   52.2320 C.3   161  GLN161      0.0381
     88  CG        68.0610   29.5830   51.9340 C.3   161  GLN161      0.0905
     89  CD        68.8150   28.3500   52.3970 C.2   161  GLN161      0.2608
     90  OE1       69.8360   27.9790   51.7870 O.2   161  GLN161     -0.2717
     91  NE2       68.3810   27.7490   53.4960 N.am  161  GLN161     -0.0878
     92  N         64.1220   29.4850   54.5460 N.am  162  ASP162     -0.1974
     93  CA        62.6710   29.4720   54.8360 C.3   162  ASP162      0.1709
     94  C         62.1810   30.4930   55.8750 C.2   162  ASP162      0.2293
     95  O         60.9920   30.5870   56.1690 O.2   162  ASP162     -0.2864
     96  CB        62.2370   28.0840   55.2580 C.3   162  ASP162      0.1436
     97  CG        62.2060   27.1300   54.0950 C.2   162  ASP162      0.3671
     98  OD1       61.9840   27.5790   52.9270 O.co2 162  ASP162     -0.2456
     99  OD2       62.3850   25.9300   54.2650 O.co2 162  ASP162     -0.2456
    100  N         77.6090   27.7900   48.1570 N.3   241  THR241     -0.1218
    101  CA        76.3150   27.2160   48.5670 C.3   241  THR241      0.1862
    102  C         76.3620   26.3100   49.8200 C.2   241  THR241      0.2287
    103  O         75.5930   26.4920   50.7560 O.2   241  THR241     -0.2866
    104  CB        75.6460   26.4780   47.3890 C.3   241  THR241      0.1770
    105  OG1       75.5890   27.3480   46.2510 O.3   241  THR241     -0.2211
    106  CG2       74.1480   26.1480   47.7220 C.3   241  THR241      0.0375
    107  N         77.1500   27.2330   54.5710 N.3   244  GLY244     -0.1210
    108  CA        76.3380   27.4800   55.7640 C.3   244  GLY244      0.1956
    109  C         76.0650   26.1840   56.5220 C.2   244  GLY244      0.2611
    110  O         76.3620   26.0310   57.7350 O.2   244  GLY244     -0.2717
    111  N         75.4990   25.2220   55.8110 N.am  245  ASP245     -0.1973
    112  CA        75.1970   23.9450   56.4410 C.3   245  ASP245      0.1709
    113  C         76.4320   23.1780   56.9310 C.2   245  ASP245      0.2293
    114  O         76.3550   22.5180   57.9700 O.2   245  ASP245     -0.2864
    115  CB        74.3420   23.0720   55.5230 C.3   245  ASP245      0.1436
    116  CG        73.0650   23.7510   55.1390 C.2   245  ASP245      0.3671
    117  OD1       72.5020   24.5040   55.9980 O.co2 245  ASP245     -0.2456
    118  OD2       72.5560   23.5920   54.0120 O.co2 245  ASP245     -0.2456
    119  N         76.5700   21.0710   47.6040 N.3   281  CYS281     -0.1235
    120  CA        76.7250   21.2110   49.0630 C.3   281  CYS281      0.1677
    121  C         77.3750   20.0630   49.7890 C.2   281  CYS281      0.2270
    122  O         77.8090   20.2320   50.9170 O.2   281  CYS281     -0.2867
    123  CB        75.3760   21.4750   49.7130 C.3   281  CYS281      0.0956
    124  SG        74.6900   23.0780   49.2890 S.3   281  CYS281     -0.0801
@<TRIPOS>BOND
     1    53    52    2
     2    19    18    2
     3    52    51    1
     4    18    17    1
     5    50    51    1
     6    48    47    2
     7    51    54    1
     8    47    46    1
     9    17    16    1
    10    17    20    1
    11    54    56    1
    12    54    55    1
    13    45    46    1
    14    46    49    1
    15    20    21    1
    16    60    59    1
    17    60    61    2
    18    55    57    1
    19    59    58    1
    20    59    62    1
    21    65    66    1
    22    67    66    1
    23    67    68    2
    24    21    22   ar
    25    21    23   ar
    26    66    69    1
    27   105   104    1
    28    62    64    1
    29    62    63    1
    30    13    14    2
    31    13    12    1
    32   104   106    1
    33   104   101    1
    34    69    70    1
    35   119   120    1
    36    24    25    1
    37    12    15    1
    38    12    11    1
    39    71    70   ar
    40    71    73   ar
    41   100   101    1
    42    70    72   ar
    43   101   102    1
    44    25    26    1
    45    73    75   ar
    46   120   123    1
    47   120   121    1
    48    72    74   ar
    49   124   123    1
    50    75    74   ar
    51    26    28   am
    52    26    27    2
    53   121   122    2
    54   102   103    2
    55    28    29    1
    56    43    42    2
    57    29    30    1
    58    44    42   am
    59    90    89    2
    60    88    87    1
    61    88    89    1
    62    42    41    1
    63    87    84    1
    64    89    91   am
    65    30    31    2
    66    30    32   am
    67     7     9   ar
    68     7     6   ar
    69     5     6    1
    70     5     2    1
    71     9    10   ar
    72    98    97   ar
    73     6     8   ar
    74    86    85    2
    75    32    33    1
    76     8    10   ar
    77     3     4    2
    78     3     2    1
    79    41    38    1
    80    84    85    1
    81    84    83    1
    82    85    92   am
    83     2     1    1
    84    38    37    1
    85    38    39    1
    86   118   116   ar
    87    97    99   ar
    88    97    96    1
    89    33    36    1
    90    33    34    1
    91    92    93    1
    92   107   108    1
    93    93    96    1
    94    93    94    1
    95   116   115    1
    96   116   117   ar
    97    39    40    2
    98    82    80    1
    99    81    80    1
   100    34    35    2
   101   115   112    1
   102    80    77    1
   103   108   109    1
   104   111   112    1
   105   111   109   am
   106    94    95    2
   107   112   113    1
   108   109   110    2
   109   113   114    2
   110    77    78    1
   111    77    76    1
   112    78    79    2
