@<TRIPOS>MOLECULE
tmp/2c49A01.pdb
 202 191 0 0 0
SMALL
GASTEIGER

@<TRIPOS>ATOM
      1  N         79.4590   36.6250   44.6630 N.3   105  ASN105     -0.1240
      2  CA        78.8640   35.5420   45.4680 C.3   105  ASN105      0.1653
      3  C         77.6480   35.8950   46.3470 C.2   105  ASN105      0.2266
      4  O         77.4160   35.2910   47.4080 O.2   105  ASN105     -0.2867
      5  CB        79.9230   34.7510   46.2720 C.3   105  ASN105      0.1155
      6  CG        81.0690   34.2390   45.4010 C.2   105  ASN105      0.2627
      7  OD1       80.8660   33.4540   44.4760 O.2   105  ASN105     -0.2716
      8  ND2       82.2820   34.6910   45.7030 N.am  105  ASN105     -0.0877
      9  N         73.6760   35.3010   46.3530 N.3   107  GLN107     -0.1245
     10  CA        72.8450   34.2200   45.8150 C.3   107  GLN107      0.1566
     11  C         71.3420   34.5040   45.9290 C.2   107  GLN107      0.2260
     12  O         70.8840   35.1660   46.8520 O.2   107  GLN107     -0.2867
     13  CB        73.1610   32.8790   46.5030 C.3   107  GLN107      0.0367
     14  CG        74.6420   32.4260   46.4090 C.3   107  GLN107      0.0905
     15  CD        74.8270   30.9630   46.7750 C.2   107  GLN107      0.2608
     16  OE1       75.1450   30.1330   45.9140 O.2   107  GLN107     -0.2717
     17  NE2       74.6210   30.6370   48.0470 N.am  107  GLN107     -0.0878
     18  N         66.8330   29.7680   54.6430 N.3   161  GLN161     -0.1245
     19  CA        66.1470   30.3400   53.4870 C.3   161  GLN161      0.1566
     20  C         64.6390   30.3550   53.6760 C.2   161  GLN161      0.2260
     21  O         63.9530   31.1670   53.0780 O.2   161  GLN161     -0.2867
     22  CB        66.5410   29.5520   52.2320 C.3   161  GLN161      0.0367
     23  CG        68.0610   29.5830   51.9340 C.3   161  GLN161      0.0905
     24  CD        68.8150   28.3500   52.3970 C.2   161  GLN161      0.2608
     25  OE1       69.8360   27.9790   51.7870 O.2   161  GLN161     -0.2717
     26  NE2       68.3810   27.7490   53.4960 N.am  161  GLN161     -0.0878
     27  N         72.5250   33.3840   59.1530 N.3   184  ASN184     -0.1225
     28  CA        73.3070   34.1230   58.2010 C.3   184  ASN184      0.1785
     29  C         73.2550   35.5620   58.6520 C.2   184  ASN184      0.2597
     30  O         72.3930   35.9340   59.4510 O.2   184  ASN184     -0.2718
     31  CB        72.5580   34.2210   56.8840 C.3   184  ASN184      0.1169
     32  CG        73.2520   33.5490   55.7690 C.2   184  ASN184      0.2627
     33  OD1       74.3510   33.0180   55.9440 O.2   184  ASN184     -0.2716
     34  ND2       72.6350   33.5450   54.5930 N.am  184  ASN184     -0.0877
     35  N         74.1480   36.4060   58.1520 N.am  185  LYS185     -0.1966
     36  CA        74.0520   37.8520   58.3850 C.3   185  LYS185      0.1728
     37  C         72.6990   38.3820   57.8840 C.2   185  LYS185      0.2616
     38  O         72.0850   39.2110   58.5340 O.2   185  LYS185     -0.2715
     39  CB        75.2110   38.5900   57.7100 C.3   185  LYS185      0.0311
     40  CG        75.3710   38.3630   56.2170 C.3   185  LYS185      0.0038
     41  CD        76.7900   38.6890   55.7610 C.3   185  LYS185      0.0206
     42  CE        76.8680   40.0640   55.1290 C.3   185  LYS185      0.1093
     43  NZ        77.8960   40.1140   54.0500 N.3   185  LYS185     -0.1314
     44  N         72.2380   37.8700   56.7370 N.am  186  HIS186     -0.1959
     45  CA        70.9870   38.3190   56.1010 C.3   186  HIS186      0.1787
     46  C         69.7460   37.9180   56.9040 C.2   186  HIS186      0.2620
     47  O         68.8440   38.7370   57.1440 O.2   186  HIS186     -0.2715
     48  CB        70.8880   37.7520   54.6860 C.3   186  HIS186      0.0785
     49  CG        72.0290   38.1530   53.8040 C.ar  186  HIS186      0.0821
     50  ND1       72.8730   37.2310   53.2160 N.ar  186  HIS186     -0.2267
     51  CD2       72.4870   39.3670   53.4420 C.ar  186  HIS186      0.1154
     52  CE1       73.7900   37.8700   52.5130 C.ar  186  HIS186      0.1986
     53  NE2       73.5790   39.1660   52.6370 N.ar  186  HIS186     -0.2212
     54  N         69.7180   36.6540   57.2850 N.am  187  GLU187     -0.1977
     55  CA        68.6930   36.0730   58.1240 C.3   187  GLU187      0.1602
     56  C         68.6300   36.7350   59.5120 C.2   187  GLU187      0.2287
     57  O         67.5660   36.9490   60.0570 O.2   187  GLU187     -0.2864
     58  CB        68.9520   34.5440   58.2640 C.3   187  GLU187      0.0415
     59  CG        68.7360   33.8000   56.9410 C.3   187  GLU187      0.1163
     60  CD        69.5920   32.5420   56.7460 C.2   187  GLU187      0.3649
     61  OE1       70.3110   32.0740   57.6840 O.co2 187  GLU187     -0.2457
     62  OE2       69.5670   32.0300   55.5990 O.co2 187  GLU187     -0.2457
     63  N         76.7340   33.9790   61.2260 N.3   212  THR212     -0.1203
     64  CA        77.8160   33.8860   60.2420 C.3   212  THR212      0.1994
     65  C         77.7970   35.0870   59.3210 C.2   212  THR212      0.2618
     66  O         76.7470   35.6850   59.1020 O.2   212  THR212     -0.2717
     67  CB        77.7680   32.5840   59.4140 C.3   212  THR212      0.1784
     68  OG1       76.5450   32.5300   58.6540 O.3   212  THR212     -0.2211
     69  CG2       77.6860   31.3900   60.3370 C.3   212  THR212      0.0376
     70  N         78.9680   35.4170   58.7850 N.am  213  LYS213     -0.1965
     71  CA        79.1290   36.5230   57.8700 C.3   213  LYS213      0.1728
     72  C         80.0600   36.1270   56.7290 C.2   213  LYS213      0.2617
     73  O         80.9620   36.8760   56.3600 O.2   213  LYS213     -0.2715
     74  CB        79.6160   37.7830   58.6020 C.3   213  LYS213      0.0311
     75  CG        80.7030   37.5390   59.6560 C.3   213  LYS213      0.0038
     76  CD        81.1770   38.8390   60.3180 C.3   213  LYS213      0.0206
     77  CE        81.9930   38.5150   61.5760 C.3   213  LYS213      0.1093
     78  NZ        82.7100   39.7120   62.1140 N.3   213  LYS213     -0.1314
     79  N         79.8350   34.9270   56.1890 N.am  214  GLY214     -0.1940
     80  CA        80.4970   34.5030   54.9620 C.3   214  GLY214      0.2014
     81  C         82.0010   34.6190   55.0660 C.2   214  GLY214      0.2639
     82  O         82.5850   34.1660   56.0420 O.2   214  GLY214     -0.2714
     83  N         82.6070   35.2780   54.0830 N.am  215  SER215     -0.1949
     84  CA        84.0590   35.4580   54.0290 C.3   215  SER215      0.1924
     85  C         84.6480   36.3430   55.1450 C.2   215  SER215      0.2314
     86  O         85.8770   36.4700   55.2590 O.2   215  SER215     -0.2863
     87  CB        84.4900   35.9610   52.6420 C.3   215  SER215      0.2116
     88  OG        84.1660   37.3280   52.4310 O.3   215  SER215     -0.2180
     89  N         83.9570   35.5660   58.2820 N.3   217  GLY217     -0.1210
     90  CA        83.9530   34.6700   59.4220 C.3   217  GLY217      0.1956
     91  C         82.5950   34.5850   60.1030 C.2   217  GLY217      0.2612
     92  O         81.5570   34.4550   59.4340 O.2   217  GLY217     -0.2717
     93  N         82.5980   34.6470   61.4360 N.am  218  SER218     -0.1952
     94  CA        81.3760   34.4950   62.2200 C.3   218  SER218      0.1924
     95  C         81.6350   34.9370   63.6480 C.2   218  SER218      0.2314
     96  O         82.7840   35.1600   64.0500 O.2   218  SER218     -0.2863
     97  CB        80.8790   33.0240   62.2210 C.3   218  SER218      0.2116
     98  OG        81.9280   32.1460   62.6070 O.3   218  SER218     -0.2180
     99  N         87.3240   33.7290   59.2900 N.3   231  CYS231     -0.1221
    100  CA        87.1220   32.9210   58.1010 C.3   231  CYS231      0.1808
    101  C         88.4450   32.2160   57.8490 C.2   231  CYS231      0.2601
    102  O         89.5040   32.8280   57.9170 O.2   231  CYS231     -0.2717
    103  CB        86.7470   33.7810   56.9000 C.3   231  CYS231      0.0970
    104  SG        86.3250   32.8270   55.4310 S.3   231  CYS231     -0.0800
    105  N         88.3650   30.9210   57.5940 N.am  232  ILE232     -0.1965
    106  CA        89.5390   30.1060   57.3680 C.3   232  ILE232      0.1727
    107  C         89.6300   29.9640   55.8750 C.2   232  ILE232      0.2616
    108  O         88.6770   29.5080   55.2310 O.2   232  ILE232     -0.2715
    109  CB        89.3830   28.7280   58.0860 C.3   232  ILE232      0.0290
    110  CG1       89.7210   28.8720   59.5760 C.3   232  ILE232      0.0022
    111  CG2       90.2390   27.6410   57.4160 C.3   232  ILE232      0.0023
    112  CD1       89.1160   27.8490   60.4880 C.3   232  ILE232      0.0001
    113  N         90.7520   30.4120   55.3150 N.am  233  LYS233     -0.1963
    114  CA        90.9940   30.2910   53.8860 C.3   233  LYS233      0.1728
    115  C         90.6240   28.8820   53.3500 C.2   233  LYS233      0.2616
    116  O         90.9120   27.8400   53.9620 O.2   233  LYS233     -0.2715
    117  CB        92.4670   30.6250   53.5530 C.3   233  LYS233      0.0311
    118  CG        92.6220   32.0230   52.9120 C.3   233  LYS233      0.0038
    119  CD        94.0880   32.4390   52.8060 C.3   233  LYS233      0.0206
    120  CE        94.2690   33.9080   53.1840 C.3   233  LYS233      0.1093
    121  NZ        95.0100   34.6730   52.1360 N.3   233  LYS233     -0.1314
    122  N         89.9610   28.8850   52.2040 N.am  234  ALA234     -0.1977
    123  CA        89.8320   27.6980   51.3750 C.3   234  ALA234      0.1597
    124  C         90.9250   27.7440   50.2940 C.2   234  ALA234      0.2287
    125  O         91.6760   28.7220   50.1920 O.2   234  ALA234     -0.2864
    126  CB        88.4630   27.6920   50.7130 C.3   234  ALA234      0.0319
    127  N         87.9060   29.1560   45.7690 N.3   237  VAL237     -0.1245
    128  CA        86.4600   29.1560   46.0310 C.3   237  VAL237      0.1561
    129  C         85.6820   28.9120   44.7340 C.2   237  VAL237      0.2260
    130  O         85.7820   29.6890   43.7810 O.2   237  VAL237     -0.2867
    131  CB        85.9930   30.4850   46.6890 C.3   237  VAL237      0.0252
    132  CG1       84.4970   30.4600   46.9730 C.3   237  VAL237      0.0019
    133  CG2       86.7770   30.7610   47.9660 C.3   237  VAL237      0.0019
    134  N         79.9090   28.8680   46.9960 N.3   240  PRO240     -0.2102
    135  CA        79.6070   29.1920   48.4080 C.3   240  PRO240      0.1504
    136  C         78.3940   28.4630   48.9990 C.2   240  PRO240      0.2576
    137  O         78.1910   28.5250   50.2120 O.2   240  PRO240     -0.2718
    138  CB        79.2910   30.6820   48.3520 C.3   240  PRO240      0.0282
    139  CG        78.7090   30.8620   46.9680 C.3   240  PRO240      0.0208
    140  CD        79.5270   29.9670   46.0860 C.3   240  PRO240      0.0893
    141  N         77.6090   27.7900   48.1570 N.am  241  THR241     -0.1953
    142  CA        76.3150   27.2160   48.5670 C.3   241  THR241      0.1897
    143  C         76.3620   26.3100   49.8200 C.2   241  THR241      0.2313
    144  O         75.5930   26.4920   50.7560 O.2   241  THR241     -0.2863
    145  CB        75.6460   26.4780   47.3890 C.3   241  THR241      0.1794
    146  OG1       75.5890   27.3480   46.2510 O.3   241  THR241     -0.2208
    147  CG2       74.1480   26.1480   47.7220 C.3   241  THR241      0.0378
    148  N         78.5190   26.2240   52.2190 N.3   243  ALA243     -0.1231
    149  CA        79.2410   26.7820   53.3670 C.3   243  ALA243      0.1694
    150  C         78.4130   26.8110   54.6590 C.2   243  ALA243      0.2592
    151  O         78.9250   26.4120   55.7120 O.2   243  ALA243     -0.2718
    152  CB        79.8000   28.1830   53.0650 C.3   243  ALA243      0.0304
    153  N         77.1500   27.2330   54.5710 N.am  244  GLY244     -0.1957
    154  CA        76.3380   27.4800   55.7640 C.3   244  GLY244      0.1869
    155  C         76.0650   26.1840   56.5220 C.2   244  GLY244      0.2309
    156  O         76.3620   26.0310   57.7350 O.2   244  GLY244     -0.2863
    157  N         79.2070   24.4640   58.0050 N.3   247  TYR247     -0.1227
    158  CA        79.5900   25.1420   59.2520 C.3   247  TYR247      0.1736
    159  C         78.8000   24.5700   60.4460 C.2   247  TYR247      0.2595
    160  O         79.4020   24.2200   61.4750 O.2   247  TYR247     -0.2718
    161  CB        79.3710   26.6370   59.1340 C.3   247  TYR247      0.0548
    162  CG        79.8350   27.4370   60.3470 C.ar  247  TYR247     -0.0200
    163  CD1       81.0640   28.1250   60.3230 C.ar  247  TYR247     -0.0009
    164  CD2       79.0460   27.5250   61.4990 C.ar  247  TYR247     -0.0009
    165  CE1       81.5010   28.8840   61.4130 C.ar  247  TYR247      0.0417
    166  CE2       79.4660   28.2820   62.5940 C.ar  247  TYR247      0.0417
    167  CZ        80.6930   28.9570   62.5470 C.ar  247  TYR247      0.1957
    168  OH        81.0920   29.7020   63.6280 O.3   247  TYR247     -0.2866
    169  N         77.4580   24.4480   60.3210 N.am  248  ARG248     -0.1980
    170  CA        76.6650   23.8130   61.3770 C.3   248  ARG248      0.1597
    171  C         77.0880   22.3770   61.6220 C.2   248  ARG248      0.2287
    172  O         77.1390   21.9520   62.7850 O.2   248  ARG248     -0.2864
    173  CB        75.1260   23.8270   61.1180 C.3   248  ARG248      0.0334
    174  CG        74.4870   25.1900   61.3320 C.3   248  ARG248      0.0492
    175  CD        74.9620   26.1740   60.2910 C.3   248  ARG248      0.2205
    176  NE        74.1020   27.3180   60.1210 N.pl3 248  ARG248     -0.0865
    177  CZ        74.5010   28.4680   59.6010 C.cat 248  ARG248      0.5346
    178  NH1       75.7580   28.6320   59.1600 N.pl3 248  ARG248      0.1354
    179  NH2       73.6410   29.4660   59.5530 N.pl3 248  ARG248      0.1354
    180  N         84.1890   26.6240   60.7760 N.3   269  ALA269     -0.1245
    181  CA        84.7800   27.4840   59.7600 C.3   269  ALA269      0.1562
    182  C         85.7020   26.7010   58.8370 C.2   269  ALA269      0.2260
    183  O         85.7230   26.9660   57.6180 O.2   269  ALA269     -0.2867
    184  CB        85.5140   28.6580   60.3910 C.3   269  ALA269      0.0290
    185  N         83.6550   24.3730   56.4510 N.3   272  ALA272     -0.1231
    186  CA        83.1050   25.1570   55.3440 C.3   272  ALA272      0.1694
    187  C         84.1500   25.5030   54.2630 C.2   272  ALA272      0.2592
    188  O         83.8400   25.5100   53.0540 O.2   272  ALA272     -0.2718
    189  CB        82.3910   26.4120   55.8740 C.3   272  ALA272      0.0304
    190  N         85.3920   25.7570   54.6960 N.am  273  SER273     -0.1952
    191  CA        86.4820   26.0560   53.7710 C.3   273  SER273      0.1924
    192  C         86.7830   24.9330   52.7850 C.2   273  SER273      0.2314
    193  O         87.2620   25.1950   51.6850 O.2   273  SER273     -0.2863
    194  CB        87.7580   26.4830   54.5220 C.3   273  SER273      0.2116
    195  OG        88.3970   25.3560   55.1150 O.3   273  SER273     -0.2180
    196  N         83.3050   24.7100   50.1110 N.3   276  VAL276     -0.1245
    197  CA        83.3320   25.7620   49.0660 C.3   276  VAL276      0.1561
    198  C         84.3450   25.5600   47.9080 C.2   276  VAL276      0.2260
    199  O         84.3860   26.3450   46.9620 O.2   276  VAL276     -0.2867
    200  CB        83.5530   27.1950   49.6660 C.3   276  VAL276      0.0252
    201  CG1       82.4980   27.5560   50.6770 C.3   276  VAL276      0.0019
    202  CG2       84.9840   27.3530   50.2470 C.3   276  VAL276      0.0019
@<TRIPOS>BOND
     1   130   129    2
     2     7     6    2
     3     1     2    1
     4   129   128    1
     5     6     8   am
     6     6     5    1
     7     2     5    1
     8     2     3    1
     9   127   128    1
    10    10    11    1
    11    10     9    1
    12    10    13    1
    13    16    15    2
    14    11    12    2
    15   128   131    1
    16   140   139    1
    17   140   134    1
    18   146   145    1
    19     3     4    2
    20    14    13    1
    21    14    15    1
    22   131   132    1
    23   131   133    1
    24    15    17   am
    25   199   198    2
    26   139   138    1
    27   134   135    1
    28   145   147    1
    29   145   142    1
    30   198   197    1
    31   141   142    1
    32   141   136   am
    33   138   135    1
    34   135   136    1
    35   142   143    1
    36   136   137    2
    37   197   200    1
    38   197   196    1
    39   200   202    1
    40   200   201    1
    41   143   144    2
    42   125   124    2
    43   124   123    1
    44   126   123    1
    45   123   122    1
    46   193   192    2
    47    25    24    2
    48    23    22    1
    49    23    24    1
    50   121   120    1
    51   122   115   am
    52   148   149    1
    53    22    19    1
    54    24    26   am
    55    88    87    1
    56    52    53   ar
    57    52    50   ar
    58    53    51   ar
    59    87    84    1
    60   192   191    1
    61   119   118    1
    62   119   120    1
    63   118   117    1
    64   188   187    2
    65   152   149    1
    66    21    20    2
    67    50    49   ar
    68   115   114    1
    69   115   116    2
    70   149   150    1
    71    51    49   ar
    72    19    20    1
    73    19    18    1
    74   117   114    1
    75   191   194    1
    76   191   190    1
    77    49    48    1
    78   114   113    1
    79    84    83    1
    80    84    85    1
    81    43    42    1
    82    83    81   am
    83   187   190   am
    84   187   186    1
    85   194   195    1
    86   153   150   am
    87   153   154    1
    88    34    32   am
    89   150   151    2
    90    48    45    1
    91    80    81    1
    92    80    79    1
    93    81    82    2
    94    42    41    1
    95    85    86    2
    96   108   107    2
    97   113   107   am
    98   186   189    1
    99   186   185    1
   100   104   103    1
   101    62    60   ar
   102    41    40    1
   103   154   155    1
   104    32    33    2
   105    32    31    1
   106   107   106    1
   107    45    44    1
   108    45    46    1
   109    79    72   am
   110    40    39    1
   111    73    72    2
   112   155   156    2
   113    72    71    1
   114    44    37   am
   115    60    59    1
   116    60    61   ar
   117    31    28    1
   118   103   100    1
   119    46    47    2
   120    46    54   am
   121    59    58    1
   122    54    55    1
   123   106   105    1
   124   106   109    1
   125   111   109    1
   126   105   101   am
   127   183   182    2
   128    39    36    1
   129   101   102    2
   130   101   100    1
   131    71    74    1
   132    71    70    1
   133    37    36    1
   134    37    38    2
   135   157   158    1
   136   109   110    1
   137   100    99    1
   138    55    58    1
   139    55    56    1
   140    35    36    1
   141    35    29   am
   142    28    29    1
   143    28    27    1
   144    89    90    1
   145    74    75    1
   146    29    30    2
   147    68    67    1
   148    70    65   am
   149   182   181    1
   150    66    65    2
   151   161   158    1
   152   161   162    1
   153   178   177    1
   154   158   159    1
   155    65    64    1
   156    67    64    1
   157    67    69    1
   158    90    91    1
   159    92    91    2
   160    56    57    2
   161   179   177    1
   162   110   112    1
   163   177   176    2
   164    75    76    1
   165   181   184    1
   166   181   180    1
   167    91    93   am
   168   176   175    1
   169    64    63    1
   170   175   174    1
   171    76    77    1
   172   169   159   am
   173   169   170    1
   174   163   162   ar
   175   163   165   ar
   176   162   164   ar
   177   159   160    2
   178   173   174    1
   179   173   170    1
   180   170   171    1
   181   165   167   ar
   182    93    94    1
   183   164   166   ar
   184    77    78    1
   185   171   172    2
   186    94    97    1
   187    94    95    1
   188    97    98    1
   189   167   166   ar
   190   167   168    1
   191    95    96    2
