@<TRIPOS>MOLECULE
tmp/2c4bB01.pdb
 93 91 0 0 0
SMALL
GASTEIGER

@<TRIPOS>ATOM
      1  N         13.1890    8.7150   42.6470 N.3    33  TRP33      -0.1241
      2  CA        12.8590    7.9730   41.4620 C.3    33  TRP33       0.1605
      3  C         14.1080    7.2240   40.9800 C.2    33  TRP33       0.2264
      4  O         15.2050    7.7780   40.9200 O.2    33  TRP33      -0.2867
      5  CB        12.3440    8.8920   40.3500 C.3    33  TRP33       0.0550
      6  CG        12.1610    8.1860   39.0280 C.ar   33  TRP33       0.0003
      7  CD1       11.2700    7.1880   38.7320 C.ar   33  TRP33       0.0946
      8  CD2       12.8790    8.4410   37.8140 C.ar   33  TRP33       0.0152
      9  NE1       11.4010    6.8000   37.4190 N.ar   33  TRP33      -0.2442
     10  CE2       12.3870    7.5550   36.8450 C.ar   33  TRP33       0.0810
     11  CE3       13.9300    9.3160   37.4570 C.ar   33  TRP33       0.0012
     12  CZ2       12.8730    7.5500   35.5450 C.ar   33  TRP33       0.0191
     13  CZ3       14.4130    9.3130   36.1670 C.ar   33  TRP33       0.0001
     14  CH2       13.8770    8.4220   35.2310 C.ar   33  TRP33       0.0015
     15  N         14.8780    4.6740   37.5940 N.3    35  ALA35      -0.1231
     16  CA        14.2310    4.0960   36.4010 C.3    35  ALA35       0.1694
     17  C         13.8270    2.6140   36.5480 C.2    35  ALA35       0.2592
     18  O         12.6780    2.2310   36.2920 O.2    35  ALA35      -0.2718
     19  CB        15.0480    4.3370   35.1630 C.3    35  ALA35       0.0304
     20  N         14.7150    1.7540   36.9930 N.am   36  SER36      -0.1952
     21  CA        14.3340    0.3280   37.0590 C.3    36  SER36       0.1924
     22  C         13.2450   -0.0330   38.0830 C.2    36  SER36       0.2314
     23  O         12.7950   -1.2010   38.1820 O.2    36  SER36      -0.2863
     24  CB        15.5750   -0.4610   37.3260 C.3    36  SER36       0.2116
     25  OG        16.1330   -0.1080   38.5970 O.3    36  SER36      -0.2180
     26  N         10.2180    1.8050   38.5460 N.3    38  GLY38      -0.1225
     27  CA         8.8730    2.1660   38.1900 C.3    38  GLY38       0.1811
     28  C          8.1300    2.9470   39.2460 C.2    38  GLY38       0.2280
     29  O          6.8970    2.9010   39.3240 O.2    38  GLY38      -0.2866
     30  N          5.7340    2.3160   35.4650 N.3    80  PHE80      -0.1227
     31  CA         6.8470    2.5340   34.5920 C.3    80  PHE80       0.1736
     32  C          6.4130    3.5750   33.5410 C.2    80  PHE80       0.2595
     33  O          5.2490    3.7370   33.2310 O.2    80  PHE80      -0.2718
     34  CB         7.2780    1.2260   33.9270 C.3    80  PHE80       0.0547
     35  CG         7.9110    0.2730   34.9220 C.ar   80  PHE80      -0.0202
     36  CD1        9.2540    0.3780   35.2010 C.ar   80  PHE80      -0.0042
     37  CD2        7.1590   -0.6480   35.5690 C.ar   80  PHE80      -0.0042
     38  CE1        9.8510   -0.4650   36.1310 C.ar   80  PHE80      -0.0003
     39  CE2        7.7500   -1.5030   36.5310 C.ar   80  PHE80      -0.0003
     40  CZ         9.0930   -1.4040   36.7800 C.ar   80  PHE80      -0.0000
     41  N          7.3910    4.2680   33.0050 N.am   81  ARG81      -0.1966
     42  CA         7.1340    5.2500   31.9340 C.3    81  ARG81       0.1729
     43  C          6.6710    4.5320   30.6740 C.2    81  ARG81       0.2616
     44  O          7.0180    3.3600   30.4070 O.2    81  ARG81      -0.2715
     45  CB         8.4200    6.0190   31.6600 C.3    81  ARG81       0.0348
     46  CG         8.8420    6.8950   32.8290 C.3    81  ARG81       0.0492
     47  CD        10.2240    7.4970   32.6260 C.3    81  ARG81       0.2205
     48  NE        10.2110    8.5620   31.6020 N.pl3  81  ARG81      -0.0865
     49  CZ        11.2980    9.0710   31.0290 C.cat  81  ARG81       0.5346
     50  NH1       12.4940    8.6030   31.3030 N.pl3  81  ARG81       0.1354
     51  NH2       11.1720   10.0450   30.1620 N.pl3  81  ARG81       0.1354
     52  N          5.8680    5.2570   29.9120 N.am   82  ASN82      -0.1958
     53  CA         5.2920    4.7880   28.6470 C.3    82  ASN82       0.1819
     54  C          6.1550    5.2600   27.4800 C.2    82  ASN82       0.2622
     55  O          7.2860    5.6860   27.7040 O.2    82  ASN82      -0.2715
     56  CB         3.8190    5.1800   28.5460 C.3    82  ASN82       0.1195
     57  CG         3.6530    6.6730   28.4660 C.2    82  ASN82       0.2630
     58  OD1        4.5890    7.3750   28.0460 O.2    82  ASN82      -0.2716
     59  ND2        2.4860    7.1630   28.8250 N.am   82  ASN82      -0.0877
     60  N          5.6790    5.1140   26.2600 N.am   83  SER83      -0.1950
     61  CA         6.4180    5.4080   25.0300 C.3    83  SER83       0.1924
     62  C          6.0050    6.7480   24.3790 C.2    83  SER83       0.2314
     63  O          6.4280    7.0240   23.2630 O.2    83  SER83      -0.2863
     64  CB         6.2290    4.2770   24.0000 C.3    83  SER83       0.2116
     65  OG         4.8730    4.0670   23.6580 O.3    83  SER83      -0.2180
     66  N          5.8080   10.8500   24.0960 N.3    85  ARG85      -0.1245
     67  CA         6.5280   12.0610   24.4380 C.3    85  ARG85       0.1563
     68  C          6.1100   13.1820   23.5490 C.2    85  ARG85       0.2260
     69  O          5.8500   13.0000   22.3710 O.2    85  ARG85      -0.2867
     70  CB         8.0270   11.9150   24.3000 C.3    85  ARG85       0.0307
     71  CG         8.6450   10.6470   24.9560 C.3    85  ARG85       0.0489
     72  CD         8.8430   10.8100   26.4430 C.3    85  ARG85       0.2205
     73  NE         9.4920    9.6300   27.0240 N.pl3  85  ARG85      -0.0865
     74  CZ         8.8220    8.6230   27.5600 C.cat  85  ARG85       0.5346
     75  NH1        7.5120    8.6080   27.5770 N.pl3  85  ARG85       0.1354
     76  NH2        9.4740    7.5850   28.0580 N.pl3  85  ARG85       0.1354
     77  N          8.4690    5.8540   21.4590 N.3   100  ALA100     -0.1231
     78  CA         9.7240    6.0400   22.1630 C.3   100  ALA100      0.1694
     79  C         10.7930    6.4810   21.1820 C.2   100  ALA100      0.2592
     80  O         11.8570    5.8930   21.0870 O.2   100  ALA100     -0.2718
     81  CB        10.1740    4.7840   22.9280 C.3   100  ALA100      0.0304
     82  N         10.5100    7.5900   20.4870 N.am  101  TYR101     -0.1976
     83  CA        11.5370    8.3430   19.7710 C.3   101  TYR101      0.1639
     84  C         11.9520    7.7570   18.4550 C.2   101  TYR101      0.2290
     85  O         12.9230    8.2400   17.8470 O.2   101  TYR101     -0.2864
     86  CB        12.7770    8.6890   20.5990 C.3   101  TYR101      0.0560
     87  CG        12.5900    9.0820   22.0600 C.ar  101  TYR101     -0.0198
     88  CD1       12.7530    8.1540   23.0730 C.ar  101  TYR101     -0.0009
     89  CD2       12.2940   10.3730   22.4410 C.ar  101  TYR101     -0.0009
     90  CE1       12.6070    8.5080   24.4100 C.ar  101  TYR101      0.0417
     91  CE2       12.1420   10.7400   23.7520 C.ar  101  TYR101      0.0417
     92  CZ        12.3160    9.7820   24.7410 C.ar  101  TYR101      0.1957
     93  OH        12.1600   10.1090   26.0610 O.3   101  TYR101     -0.2866
@<TRIPOS>BOND
     1    85    84    2
     2    84    83    1
     3    83    82    1
     4    83    86    1
     5    82    79   am
     6    86    87    1
     7    80    79    2
     8    79    78    1
     9    77    78    1
    10    87    89   ar
    11    87    88   ar
    12    78    81    1
    13    69    68    2
    14    89    91   ar
    15    88    90   ar
    16    63    62    2
    17    68    67    1
    18    65    64    1
    19    91    92   ar
    20    64    61    1
    21    66    67    1
    22    70    67    1
    23    70    71    1
    24    62    61    1
    25    90    92   ar
    26    92    93    1
    27    71    72    1
    28    61    60    1
    29    60    54   am
    30    72    73    1
    31    73    74    2
    32    54    55    2
    33    54    53    1
    34    74    75    1
    35    74    76    1
    36    58    57    2
    37    57    56    1
    38    57    59   am
    39    56    53    1
    40    53    52    1
    41    52    43   am
    42    51    49    1
    43    44    43    2
    44    43    42    1
    45    49    50    1
    46    49    48    2
    47    48    47    1
    48    45    42    1
    49    45    46    1
    50    42    41    1
    51    47    46    1
    52    41    32   am
    53    33    32    2
    54    32    31    1
    55    34    31    1
    56    34    35    1
    57    31    30    1
    58    35    36   ar
    59    35    37   ar
    60    19    16    1
    61    36    38   ar
    62    14    12   ar
    63    14    13   ar
    64    12    10   ar
    65    37    39   ar
    66    38    40   ar
    67    13    11   ar
    68    18    17    2
    69    16    17    1
    70    16    15    1
    71    39    40   ar
    72    17    20   am
    73    10     9   ar
    74    10     8   ar
    75    20    21    1
    76    21    24    1
    77    21    22    1
    78    24    25    1
    79     9     7   ar
    80    11     8   ar
    81     8     6   ar
    82    22    23    2
    83    27    26    1
    84    27    28    1
    85     7     6   ar
    86     6     5    1
    87    28    29    2
    88     5     2    1
    89     4     3    2
    90     3     2    1
    91     2     1    1
