@<TRIPOS>MOLECULE
tmp/2c4cB00.pdb
 191 183 0 0 0
SMALL
GASTEIGER

@<TRIPOS>ATOM
      1  N         45.8050   29.4320   -3.0820 N.3    87  GLY87      -0.1210
      2  CA        47.2000   29.0330   -2.9780 C.3    87  GLY87       0.1940
      3  C         47.4030   27.9140   -3.9720 C.2    87  GLY87       0.2454
      4  O         46.4170   27.3570   -4.4640 O.2    87  GLY87      -0.2732
      5  N         48.6710   27.5660   -4.2770 N.am   88  PRO88      -0.2717
      6  CA        48.9200   26.5820   -5.3300 C.3    88  PRO88       0.1535
      7  C         48.0580   25.3410   -5.1590 C.2    88  PRO88       0.2599
      8  O         47.4280   24.8920   -6.1130 O.2    88  PRO88      -0.2715
      9  CB        50.3980   26.2390   -5.1460 C.3    88  PRO88       0.0310
     10  CG        50.9810   27.4550   -4.5640 C.3    88  PRO88       0.0237
     11  CD        49.9270   28.0410   -3.6700 C.3    88  PRO88       0.0939
     12  N         48.0010   24.8290   -3.9350 N.am   89  CYS89      -0.1954
     13  CA        47.2900   23.5900   -3.6410 C.3    89  CYS89       0.1843
     14  C         45.7760   23.7430   -3.7410 C.2    89  CYS89       0.2626
     15  O         45.1040   22.8720   -4.2980 O.2    89  CYS89      -0.2714
     16  CB        47.7000   23.0660   -2.2680 C.3    89  CYS89       0.0997
     17  SG        49.4980   23.0220   -2.0570 S.3    89  CYS89      -0.0797
     18  N         45.2570   24.8570   -3.2160 N.am   90  GLY90      -0.1954
     19  CA        43.8320   25.1890   -3.2960 C.3    90  GLY90       0.1869
     20  C         43.3120   25.1680   -4.7160 C.2    90  GLY90       0.2309
     21  O         42.2200   24.6650   -4.9790 O.2    90  GLY90      -0.2863
     22  N         53.3700   37.0220   -3.3760 N.3   115  ARG115     -0.1245
     23  CA        54.5440   36.3480   -2.8120 C.3   115  ARG115      0.1563
     24  C         55.5750   36.0010   -3.8950 C.2   115  ARG115      0.2260
     25  O         55.2570   35.2910   -4.8460 O.2   115  ARG115     -0.2867
     26  CB        54.1180   35.0940   -2.0310 C.3   115  ARG115      0.0307
     27  CG        53.2620   35.3870   -0.7910 C.3   115  ARG115      0.0489
     28  CD        52.8940   34.1310   -0.0010 C.3   115  ARG115      0.2205
     29  NE        51.8550   33.3380   -0.6610 N.pl3 115  ARG115     -0.0865
     30  CZ        51.3480   32.1950   -0.1950 C.cat 115  ARG115      0.5346
     31  NH1       51.7660   31.6810    0.9550 N.pl3 115  ARG115      0.1354
     32  NH2       50.4120   31.5620   -0.8890 N.pl3 115  ARG115      0.1354
     33  N         58.4130   34.3530   -3.3350 N.3   117  ASN117     -0.1225
     34  CA        59.2460   33.2830   -2.7990 C.3   117  ASN117      0.1785
     35  C         59.3430   32.0770   -3.7130 C.2   117  ASN117      0.2597
     36  O         58.3330   31.5530   -4.1690 O.2   117  ASN117     -0.2718
     37  CB        58.7270   32.8570   -1.4330 C.3   117  ASN117      0.1169
     38  CG        58.9290   33.9230   -0.3760 C.2   117  ASN117      0.2627
     39  OD1       60.0610   34.2740   -0.0360 O.2   117  ASN117     -0.2716
     40  ND2       57.8270   34.4370    0.1600 N.am  117  ASN117     -0.0877
     41  N         60.5710   31.6430   -3.9690 N.am  118  VAL118     -0.1966
     42  CA        60.8230   30.5230   -4.8650 C.3   118  VAL118      0.1727
     43  C         60.6310   29.1890   -4.1500 C.2   118  VAL118      0.2616
     44  O         61.2610   28.9220   -3.1260 O.2   118  VAL118     -0.2715
     45  CB        62.2340   30.6040   -5.4790 C.3   118  VAL118      0.0290
     46  CG1       62.4770   29.4510   -6.4380 C.3   118  VAL118      0.0023
     47  CG2       62.4090   31.9280   -6.1920 C.3   118  VAL118      0.0023
     48  N         59.7500   28.3640   -4.7030 N.am  119  LEU119     -0.1963
     49  CA        59.4970   27.0290   -4.1870 C.3   119  LEU119      0.1728
     50  C         60.2740   26.0060   -5.0070 C.2   119  LEU119      0.2616
     51  O         60.3890   26.1400   -6.2240 O.2   119  LEU119     -0.2715
     52  CB        58.0000   26.7180   -4.2410 C.3   119  LEU119      0.0311
     53  CG        57.0550   27.8540   -3.8330 C.3   119  LEU119      0.0022
     54  CD1       55.6230   27.5830   -4.2760 C.3   119  LEU119      0.0001
     55  CD2       57.1180   28.1180   -2.3370 C.3   119  LEU119      0.0001
     56  N         60.8190   24.9980   -4.3300 N.am  120  HIS120     -0.1973
     57  CA        61.4920   23.8850   -4.9950 C.3   120  HIS120      0.1656
     58  C         60.4740   22.8200   -5.3840 C.2   120  HIS120      0.2291
     59  O         59.5980   22.4620   -4.5920 O.2   120  HIS120     -0.2864
     60  CB        62.5730   23.2810   -4.0950 C.3   120  HIS120      0.0771
     61  CG        63.4050   22.2320   -4.7670 C.ar  120  HIS120      0.0820
     62  ND1       64.6330   22.5040   -5.3320 N.ar  120  HIS120     -0.2267
     63  CD2       63.1900   20.9080   -4.9580 C.ar  120  HIS120      0.1154
     64  CE1       65.1380   21.3950   -5.8430 C.ar  120  HIS120      0.1986
     65  NE2       64.2810   20.4120   -5.6290 N.ar  120  HIS120     -0.2212
     66  N         56.0430   31.4670   -5.9720 N.3   151  ILE151     -0.1245
     67  CA        54.6680   31.1050   -5.5980 C.3   151  ILE151      0.1561
     68  C         53.6200   31.7640   -6.4800 C.2   151  ILE151      0.2260
     69  O         52.6320   31.1220   -6.8390 O.2   151  ILE151     -0.2867
     70  CB        54.3070   31.3980   -4.1200 C.3   151  ILE151      0.0252
     71  CG1       55.5100   31.2320   -3.1950 C.3   151  ILE151      0.0019
     72  CG2       53.1700   30.4750   -3.6760 C.3   151  ILE151      0.0019
     73  CD1       55.2360   31.6030   -1.7490 C.3   151  ILE151      0.0001
     74  N         42.0090   24.7270    1.9690 N.3   211  ALA211     -0.1245
     75  CA        43.4030   24.8890    1.5700 C.3   211  ALA211      0.1562
     76  C         43.9300   26.2610    1.9820 C.2   211  ALA211      0.2260
     77  O         44.8330   26.8140    1.3470 O.2   211  ALA211     -0.2867
     78  CB        43.5520   24.6750    0.0830 C.3   211  ALA211      0.0290
     79  N         45.9670   27.1670    3.8630 N.3   213  GLY213     -0.1225
     80  CA        47.3450   27.0720    4.3600 C.3   213  GLY213      0.1811
     81  C         47.4430   27.1530    5.8700 C.2   213  GLY213      0.2280
     82  O         46.6100   26.5950    6.5810 O.2   213  GLY213     -0.2866
     83  N         64.3800   35.0550    4.7770 N.3   235  THR235     -0.1218
     84  CA        64.2280   34.9690    3.3240 C.3   235  THR235      0.1862
     85  C         64.4570   36.3330    2.6880 C.2   235  THR235      0.2287
     86  O         64.0810   37.3550    3.2600 O.2   235  THR235     -0.2866
     87  CB        62.8320   34.4460    2.9210 C.3   235  THR235      0.1770
     88  OG1       61.8200   35.3130    3.4460 O.3   235  THR235     -0.2211
     89  CG2       62.6160   33.0390    3.4510 C.3   235  THR235      0.0375
     90  N         68.4180   30.4470   -4.9960 N.3   277  TYR277     -0.1241
     91  CA        67.7980   30.1560   -6.2850 C.3   277  TYR277      0.1605
     92  C         67.7950   31.3960   -7.1700 C.2   277  TYR277      0.2264
     93  O         67.4270   32.4870   -6.7250 O.2   277  TYR277     -0.2867
     94  CB        66.3600   29.6660   -6.1160 C.3   277  TYR277      0.0534
     95  CG        66.1970   28.3510   -5.3900 C.ar  277  TYR277     -0.0201
     96  CD1       66.8040   27.1870   -5.8560 C.ar  277  TYR277     -0.0009
     97  CD2       65.4000   28.2650   -4.2530 C.ar  277  TYR277     -0.0009
     98  CE1       66.6380   25.9760   -5.1930 C.ar  277  TYR277      0.0417
     99  CE2       65.2260   27.0620   -3.5840 C.ar  277  TYR277      0.0417
    100  CZ        65.8470   25.9220   -4.0580 C.ar  277  TYR277      0.1957
    101  OH        65.6740   24.7310   -3.3930 O.3   277  TYR277     -0.2866
    102  N         66.8570   34.9170   -5.2580 N.3   283  TYR283     -0.1241
    103  CA        66.2600   34.3730   -4.0430 C.3   283  TYR283      0.1605
    104  C         67.2660   33.7330   -3.0900 C.2   283  TYR283      0.2264
    105  O         68.1050   32.9340   -3.4990 O.2   283  TYR283     -0.2867
    106  CB        65.1610   33.3690   -4.4090 C.3   283  TYR283      0.0534
    107  CG        64.4540   32.7720   -3.2170 C.ar  283  TYR283     -0.0201
    108  CD1       63.5560   33.5270   -2.4630 C.ar  283  TYR283     -0.0009
    109  CD2       64.6830   31.4520   -2.8410 C.ar  283  TYR283     -0.0009
    110  CE1       62.9070   32.9850   -1.3670 C.ar  283  TYR283      0.0417
    111  CE2       64.0360   30.8980   -1.7480 C.ar  283  TYR283      0.0417
    112  CZ        63.1520   31.6700   -1.0150 C.ar  283  TYR283      0.1957
    113  OH        62.5180   31.1200    0.0690 O.3   283  TYR283     -0.2866
    114  N         67.3050   31.9000    0.9160 N.3   285  VAL285     -0.1245
    115  CA        66.6690   31.4590    2.1620 C.3   285  VAL285      0.1561
    116  C         67.6960   30.8160    3.0920 C.2   285  VAL285      0.2260
    117  O         68.3270   29.8140    2.7440 O.2   285  VAL285     -0.2867
    118  CB        65.4340   30.5290    1.9310 C.3   285  VAL285      0.0252
    119  CG1       65.7490   29.4100    0.9530 C.3   285  VAL285      0.0019
    120  CG2       64.9170   29.9640    3.2550 C.3   285  VAL285      0.0019
    121  N         61.5640   34.5580    9.9660 N.3   354  PHE354     -0.1241
    122  CA        60.5610   33.5030   10.0470 C.3   354  PHE354      0.1605
    123  C         60.7960   32.5450   11.1970 C.2   354  PHE354      0.2264
    124  O         61.9020   32.4500   11.7280 O.2   354  PHE354     -0.2867
    125  CB        60.5010   32.7180    8.7350 C.3   354  PHE354      0.0534
    126  CG        59.5760   33.3120    7.7170 C.ar  354  PHE354     -0.0203
    127  CD1       58.1990   33.1570    7.8380 C.ar  354  PHE354     -0.0042
    128  CD2       60.0780   34.0230    6.6340 C.ar  354  PHE354     -0.0042
    129  CE1       57.3340   33.7070    6.8970 C.ar  354  PHE354     -0.0003
    130  CE2       59.2220   34.5750    5.6830 C.ar  354  PHE354     -0.0003
    131  CZ        57.8470   34.4170    5.8160 C.ar  354  PHE354     -0.0000
    132  N         43.8200   20.0970    2.6730 N.3   381  VAL381     -0.1231
    133  CA        44.8160   20.0090    1.6100 C.3   381  VAL381      0.1692
    134  C         45.8380   21.1360    1.7560 C.2   381  VAL381      0.2593
    135  O         45.4700   22.2920    1.9800 O.2   381  VAL381     -0.2718
    136  CB        44.1670   20.1170    0.2040 C.3   381  VAL381      0.0266
    137  CG1       45.1930   19.8530   -0.8810 C.3   381  VAL381      0.0020
    138  CG2       42.9920   19.1620    0.0530 C.3   381  VAL381      0.0020
    139  N         47.1190   20.7920    1.6280 N.am  382  GLY382     -0.1942
    140  CA        48.1920   21.7830    1.5940 C.3   382  GLY382      0.2014
    141  C         48.8790   22.0020    2.9260 C.2   382  GLY382      0.2638
    142  O         49.0680   21.0610    3.6970 O.2   382  GLY382     -0.2714
    143  N         49.2490   23.2530    3.1940 N.am  383  ASP383     -0.1971
    144  CA        49.9520   23.6210    4.4230 C.3   383  ASP383      0.1709
    145  C         49.0740   23.5150    5.6700 C.2   383  ASP383      0.2293
    146  O         49.5870   23.4850    6.7880 O.2   383  ASP383     -0.2864
    147  CB        50.5450   25.0360    4.3150 C.3   383  ASP383      0.1436
    148  CG        51.8550   25.0740    3.5250 C.2   383  ASP383      0.3671
    149  OD1       52.0620   24.2020    2.6480 O.co2 383  ASP383     -0.2456
    150  OD2       52.6830   26.0100    3.7360 O.co2 383  ASP383     -0.2456
    151  N         55.0180   22.2410    6.0590 N.3   388  PRO388     -0.2116
    152  CA        56.3000   21.8640    5.4630 C.3   388  PRO388      0.1372
    153  C         57.4990   22.5540    6.1070 C.2   388  PRO388      0.2244
    154  O         57.3780   23.6730    6.6110 O.2   388  PRO388     -0.2868
    155  CB        56.1560   22.3180    4.0080 C.3   388  PRO388      0.0268
    156  CG        55.1760   23.4300    4.0510 C.3   388  PRO388      0.0207
    157  CD        54.2180   23.0900    5.1530 C.3   388  PRO388      0.0892
    158  N         60.6620   24.3220    5.0960 N.3   390  TRP390     -0.1241
    159  CA        60.9880   24.9660    3.8170 C.3   390  TRP390      0.1605
    160  C         62.3080   24.5120    3.1490 C.2   390  TRP390      0.2264
    161  O         62.3140   24.2700    1.9400 O.2   390  TRP390     -0.2867
    162  CB        60.8280   26.4970    3.8900 C.3   390  TRP390      0.0550
    163  CG        59.4100   26.9190    4.2310 C.ar  390  TRP390      0.0003
    164  CD1       58.2800   26.1550    4.1160 C.ar  390  TRP390      0.0946
    165  CD2       58.9750   28.1980    4.7180 C.ar  390  TRP390      0.0152
    166  NE1       57.1760   26.8700    4.5120 N.ar  390  TRP390     -0.2442
    167  CE2       57.5720   28.1260    4.8870 C.ar  390  TRP390      0.0810
    168  CE3       59.6320   29.3950    5.0290 C.ar  390  TRP390      0.0012
    169  CZ2       56.8140   29.2060    5.3570 C.ar  390  TRP390      0.0191
    170  CZ3       58.8780   30.4690    5.5040 C.ar  390  TRP390      0.0001
    171  CH2       57.4820   30.3630    5.6620 C.ar  390  TRP390      0.0015
    172  N         61.9640   21.4640    0.9690 N.3   393  GLY393     -0.1225
    173  CA        61.3570   21.7010   -0.3440 C.3   393  GLY393      0.1811
    174  C         60.2320   20.7390   -0.6690 C.2   393  GLY393      0.2280
    175  O         60.0180   20.3850   -1.8300 O.2   393  GLY393     -0.2866
    176  N         56.9700   21.2360    0.2600 N.3   395  GLY395     -0.1210
    177  CA        55.7030   21.9450    0.4350 C.3   395  GLY395      0.1956
    178  C         54.6590   21.7290   -0.6460 C.2   395  GLY395      0.2612
    179  O         53.5520   21.2610   -0.3640 O.2   395  GLY395     -0.2717
    180  N         55.0100   22.0920   -1.8770 N.am  396  VAL396     -0.1965
    181  CA        54.1180   21.9600   -3.0280 C.3   396  VAL396      0.1727
    182  C         53.8760   20.4860   -3.3320 C.2   396  VAL396      0.2616
    183  O         52.7380   20.0720   -3.5580 O.2   396  VAL396     -0.2715
    184  CB        54.6910   22.6790   -4.2740 C.3   396  VAL396      0.0290
    185  CG1       53.8150   22.4490   -5.4970 C.3   396  VAL396      0.0023
    186  CG2       54.8340   24.1690   -4.0080 C.3   396  VAL396      0.0023
    187  N         54.9530   19.7060   -3.3090 N.am  397  ALA397     -0.1977
    188  CA        54.9090   18.2730   -3.5810 C.3   397  ALA397      0.1597
    189  C         53.8890   17.5250   -2.7220 C.2   397  ALA397      0.2287
    190  O         53.0780   16.7620   -3.2410 O.2   397  ALA397     -0.2864
    191  CB        56.2910   17.6720   -3.4090 C.3   397  ALA397      0.0319
@<TRIPOS>BOND
     1    92    93    2
     2    92    91    1
     3    69    68    2
     4    68    67    1
     5    46    45    1
     6    91    94    1
     7    91    90    1
     8    51    50    2
     9    47    45    1
    10    94    95    1
    11     8     7    2
    12    66    67    1
    13    96    95   ar
    14    96    98   ar
    15    64    65   ar
    16    64    62   ar
    17    65    63   ar
    18    67    70    1
    19   185   184    1
    20    45    42    1
    21    95    97   ar
    22    58    57    1
    23    58    59    2
    24    62    61   ar
    25     6     7    1
    26     6     9    1
    27     6     5    1
    28   102   103    1
    29    98   100   ar
    30     7    12   am
    31     9    10    1
    32    50    56   am
    33    50    49    1
    34    57    56    1
    35    57    60    1
    36    21    20    2
    37    63    61   ar
    38    42    43    1
    39    42    41    1
    40    25    24    2
    41    61    60    1
    42    20    19    1
    43    48    49    1
    44    48    43   am
    45    10    11    1
    46     4     3    2
    47   106   103    1
    48   106   107    1
    49    15    14    2
    50     5     3   am
    51     5    11    1
    52    54    53    1
    53   184   186    1
    54   184   181    1
    55    97    99   ar
    56    52    49    1
    57    52    53    1
    58    36    35    2
    59    43    44    2
    60    70    72    1
    61    70    71    1
    62   100    99   ar
    63   100   101    1
    64   103   104    1
    65     3     2    1
    66    41    35   am
    67    12    13    1
    68    24    23    1
    69    53    55    1
    70    14    13    1
    71    14    18   am
    72    35    34    1
    73    13    16    1
    74   188   191    1
    75   188   187    1
    76   188   189    1
    77   183   182    2
    78   105   104    2
    79    22    23    1
    80    33    34    1
    81   182   187   am
    82   182   181    1
    83    19    18    1
    84   190   189    2
    85   107   109   ar
    86   107   108   ar
    87    71    73    1
    88     1     2    1
    89   181   180    1
    90   109   111   ar
    91    23    26    1
    92    34    37    1
    93   108   110   ar
    94    16    17    1
    95    26    27    1
    96   180   178   am
    97   175   174    2
    98   111   112   ar
    99    37    38    1
   100   110   112   ar
   101   112   113    1
   102    32    30    1
   103   137   136    1
   104    27    28    1
   105   174   173    1
   106    29    30    2
   107    29    28    1
   108   178   179    2
   109   178   177    1
   110    38    39    2
   111    38    40   am
   112   173   172    1
   113    30    31    1
   114   138   136    1
   115    78    75    1
   116   136   133    1
   117   176   177    1
   118   114   115    1
   119   119   118    1
   120    77    76    2
   121    75    74    1
   122    75    76    1
   123   140   139    1
   124   140   141    1
   125   133   134    1
   126   133   132    1
   127   139   134   am
   128   134   135    2
   129   118   115    1
   130   118   120    1
   131   161   160    2
   132   115   116    1
   133   149   148   ar
   134    85    86    2
   135    85    84    1
   136   117   116    2
   137    87    84    1
   138    87    88    1
   139    87    89    1
   140   141   143   am
   141   141   142    2
   142   160   159    1
   143   143   144    1
   144    84    83    1
   145   148   150   ar
   146   148   147    1
   147   159   162    1
   148   159   158    1
   149    79    80    1
   150   162   163    1
   151   155   156    1
   152   155   152    1
   153   156   157    1
   154   164   163   ar
   155   164   166   ar
   156   163   165   ar
   157   147   144    1
   158    80    81    1
   159   144   145    1
   160   166   167   ar
   161   165   167   ar
   162   165   168   ar
   163   167   169   ar
   164   168   170   ar
   165   157   151    1
   166   169   171   ar
   167   152   151    1
   168   152   153    1
   169   170   171   ar
   170   145   146    2
   171   130   131   ar
   172   130   128   ar
   173   131   129   ar
   174    81    82    2
   175   153   154    2
   176   128   126   ar
   177   129   127   ar
   178   126   127   ar
   179   126   125    1
   180   125   122    1
   181   121   122    1
   182   122   123    1
   183   123   124    2
