@<TRIPOS>MOLECULE
tmp/2c4fA00.pdb
 185 179 0 0 0
SMALL
GASTEIGER

@<TRIPOS>ATOM
      1  N         19.1340    6.4970   -0.1710 N.3    24  GLN24      -0.1231
      2  CA        19.4200    7.0490    1.1550 C.3    24  GLN24       0.1698
      3  C         20.8790    7.4670    1.2570 C.2    24  GLN24       0.2592
      4  O         21.7810    6.6540    1.0440 O.2    24  GLN24      -0.2718
      5  CB        19.1270    6.0100    2.2390 C.3    24  GLN24       0.0381
      6  CG        19.3360    6.5270    3.6600 C.3    24  GLN24       0.0905
      7  CD        19.0540    5.4690    4.7140 C.2    24  GLN24       0.2608
      8  OE1       18.2220    4.5860    4.5130 O.2    24  GLN24      -0.2717
      9  NE2       19.7360    5.5660    5.8510 N.am   24  GLN24      -0.0878
     10  N         21.1110    8.7280    1.6090 N.am   25  LEU25      -0.1966
     11  CA        22.4720    9.2450    1.7220 C.3    25  LEU25       0.1728
     12  C         22.8900    9.5800    3.1480 C.2    25  LEU25       0.2616
     13  O         23.8400    9.0060    3.6860 O.2    25  LEU25      -0.2715
     14  CB        22.6250   10.5070    0.8690 C.3    25  LEU25       0.0311
     15  CG        23.9730   11.2300    0.9950 C.3    25  LEU25       0.0022
     16  CD1       25.0540   10.4070    0.3180 C.3    25  LEU25       0.0001
     17  CD2       23.8890   12.6150    0.3700 C.3    25  LEU25       0.0001
     18  N         22.1730   10.5160    3.7500 N.am   26  CYS26      -0.1968
     19  CA        22.4950   10.9730    5.0960 C.3    26  CYS26       0.1712
     20  C         21.2860   11.5800    5.7900 C.2    26  CYS26       0.2296
     21  O         20.1700   11.5650    5.2730 O.2    26  CYS26      -0.2864
     22  CB        23.5940   12.0410    5.0230 C.3    26  CYS26       0.0983
     23  SG        25.3080   11.4380    4.9940 S.3    26  CYS26      -0.0798
     24  N         31.0630   15.7820    5.0550 N.3    41  HIS41      -0.1241
     25  CA        31.5620   14.5280    4.4990 C.3    41  HIS41       0.1621
     26  C         30.5140   13.6850    3.7850 C.2    41  HIS41       0.2264
     27  O         30.8530   12.7160    3.1100 O.2    41  HIS41      -0.2867
     28  CB        32.2810   13.6890    5.5700 C.3    41  HIS41       0.0745
     29  CG        31.3780   12.8140    6.3850 C.ar   41  HIS41       0.0817
     30  ND1       30.9160   13.1760    7.6330 N.ar   41  HIS41      -0.2268
     31  CD2       30.8870   11.5740    6.1490 C.ar   41  HIS41       0.1154
     32  CE1       30.1830   12.1960    8.1310 C.ar   41  HIS41       0.1986
     33  NE2       30.1500   11.2120    7.2500 N.ar   41  HIS41      -0.2212
     34  N         37.5650   13.3730    2.9760 N.3    85  GLY85      -0.1210
     35  CA        38.2830   12.2310    3.5060 C.3    85  GLY85       0.1956
     36  C         38.7460   12.4110    4.9410 C.2    85  GLY85       0.2613
     37  O         39.2630   11.4720    5.5520 O.2    85  GLY85      -0.2717
     38  N         38.5700   13.6100    5.4860 N.am   86  THR86      -0.1938
     39  CA        38.9880   13.8690    6.8570 C.3    86  THR86       0.2028
     40  C         37.8000   14.2450    7.7340 C.2    86  THR86       0.2642
     41  O         36.6500   14.1980    7.2890 O.2    86  THR86      -0.2714
     42  CB        40.0670   14.9800    6.9320 C.3    86  THR86       0.1808
     43  OG1       39.5040   16.2310    6.5280 O.3    86  THR86      -0.2208
     44  CG2       41.2420   14.6360    6.0210 C.3    86  THR86       0.0379
     45  N         38.0780   14.6480    8.9690 N.am   87  THR87      -0.1950
     46  CA        37.0060   14.9620    9.9150 C.3    87  THR87       0.1897
     47  C         36.7500   16.4060   10.3470 C.2    87  THR87       0.2313
     48  O         35.6200   16.7480   10.6970 O.2    87  THR87      -0.2863
     49  CB        37.1950   14.1420   11.1920 C.3    87  THR87       0.1794
     50  OG1       38.5260   14.3410   11.6790 O.3    87  THR87      -0.2208
     51  CG2       36.9790   12.6580   10.9180 C.3    87  THR87       0.0378
     52  N         33.2970   19.3840    9.7710 N.3    90  ASP90      -0.1239
     53  CA        32.3040   18.5320    9.1340 C.3    90  ASP90       0.1674
     54  C         30.8960   19.1020    9.2280 C.2    90  ASP90       0.2266
     55  O         30.0680   18.6440   10.0280 O.2    90  ASP90      -0.2867
     56  CB        32.3540   17.1380    9.7550 C.3    90  ASP90       0.1410
     57  CG        31.6440   16.1100    8.9130 C.2    90  ASP90       0.3668
     58  OD1       31.3280   16.4290    7.7510 O.co2  90  ASP90      -0.2456
     59  OD2       31.4120   14.9860    9.4040 O.co2  90  ASP90      -0.2456
     60  N         22.7170    2.7200   10.2890 N.3   134  GLN134     -0.1245
     61  CA        22.9140    1.3340   10.7010 C.3   134  GLN134      0.1566
     62  C         22.6120    1.0770   12.1810 C.2   134  GLN134      0.2260
     63  O         22.9610    1.8740   13.0550 O.2   134  GLN134     -0.2867
     64  CB        24.3420    0.9010   10.3660 C.3   134  GLN134      0.0367
     65  CG        24.6250    0.9050    8.8660 C.3   134  GLN134      0.0905
     66  CD        26.0500    0.5070    8.5390 C.2   134  GLN134      0.2608
     67  OE1       26.4030    0.2950    7.3760 O.2   134  GLN134     -0.2717
     68  NE2       26.8790    0.4120    9.5640 N.am  134  GLN134     -0.0878
     69  N         20.3160   -1.0100    8.0320 N.3   141  THR141     -0.1218
     70  CA        19.8360    0.3130    8.3990 C.3   141  THR141      0.1862
     71  C         18.4090    0.1910    8.9330 C.2   141  THR141      0.2287
     72  O         17.7730   -0.8560    8.8030 O.2   141  THR141     -0.2866
     73  CB        19.8480    1.2610    7.1950 C.3   141  THR141      0.1770
     74  OG1       19.1060    0.6770    6.1180 O.3   141  THR141     -0.2211
     75  CG2       21.2760    1.5210    6.7450 C.3   141  THR141      0.0375
     76  N         41.7940   10.1250   14.2890 N.3   169  PRO169     -0.2116
     77  CA        41.6970   11.5640   14.0340 C.3   169  PRO169      0.1372
     78  C         41.7060   12.3700   15.3340 C.2   169  PRO169      0.2244
     79  O         41.1840   11.9220   16.3560 O.2   169  PRO169     -0.2868
     80  CB        40.3670   11.6920   13.2910 C.3   169  PRO169      0.0268
     81  CG        40.2340   10.3680   12.5990 C.3   169  PRO169      0.0207
     82  CD        40.6660    9.4060   13.6740 C.3   169  PRO169      0.0892
     83  N         25.3510    4.2830   20.5730 N.3   186  ASP186     -0.1225
     84  CA        26.1060    5.2560   19.7840 C.3   186  ASP186      0.1805
     85  C         25.3350    5.5520   18.5040 C.2   186  ASP186      0.2598
     86  O         24.3690    4.8550   18.1800 O.2   186  ASP186     -0.2718
     87  CB        27.4810    4.6450   19.4460 C.3   186  ASP186      0.1424
     88  CG        28.4530    5.6370   18.8090 C.2   186  ASP186      0.3668
     89  OD1       28.1860    6.8560   18.7910 O.co2 186  ASP186     -0.2456
     90  OD2       29.5160    5.1720   18.3310 O.co2 186  ASP186     -0.2456
     91  N         25.7290    6.6070   17.7950 N.am  187  SER187     -0.1938
     92  CA        25.1140    6.8980   16.5080 C.3   187  SER187      0.2055
     93  C         25.9600    6.0210   15.5790 C.2   187  SER187      0.2643
     94  O         26.9160    5.3850   16.0430 O.2   187  SER187     -0.2714
     95  CB        25.2130    8.3940   16.1630 C.3   187  SER187      0.2130
     96  OG        26.4900    8.9340   16.4530 O.3   187  SER187     -0.2179
     97  N         25.6380    5.9530   14.2930 N.am  188  CYS188     -0.1953
     98  CA        26.4100    5.0710   13.4210 C.3   188  CYS188      0.1843
     99  C         26.3950    5.5260   11.9690 C.2   188  CYS188      0.2625
    100  O         25.8110    6.5550   11.6280 O.2   188  CYS188     -0.2714
    101  CB        25.8370    3.6450   13.5370 C.3   188  CYS188      0.0997
    102  SG        26.8810    2.2440   12.9910 S.3   188  CYS188     -0.0797
    103  N         27.0490    4.7490   11.1140 N.am  189  LYS189     -0.1963
    104  CA        27.1020    5.0610    9.6980 C.3   189  LYS189      0.1728
    105  C         25.6900    5.2760    9.1630 C.2   189  LYS189      0.2616
    106  O         24.7650    4.5320    9.4950 O.2   189  LYS189     -0.2715
    107  CB        27.8080    3.9300    8.9380 C.3   189  LYS189      0.0311
    108  CG        29.2540    3.7500    9.3890 C.3   189  LYS189      0.0038
    109  CD        30.0620    2.8390    8.4800 C.3   189  LYS189      0.0206
    110  CE        29.6440    1.3900    8.6080 C.3   189  LYS189      0.1093
    111  NZ        30.5370    0.4990    7.8050 N.3   189  LYS189     -0.1314
    112  N         25.5280    6.3120    8.3500 N.am  190  GLY190     -0.1955
    113  CA        24.2260    6.6130    7.7930 C.3   190  GLY190      0.1869
    114  C         23.4990    7.6720    8.6000 C.2   190  GLY190      0.2309
    115  O         22.6600    8.3920    8.0600 O.2   190  GLY190     -0.2863
    116  N         25.0540   10.0370    9.9050 N.3   192  SER192     -0.1217
    117  CA        25.8450   11.2280    9.6000 C.3   192  SER192      0.1889
    118  C         24.9700   12.3740    9.0950 C.2   192  SER192      0.2288
    119  O         24.0960   12.1730    8.2590 O.2   192  SER192     -0.2866
    120  CB        26.8970   10.8900    8.5430 C.3   192  SER192      0.2089
    121  OG        27.8000    9.9180    9.0280 O.3   192  SER192     -0.2183
    122  N         25.7770   14.6640   13.7110 N.3   210  VAL210     -0.1231
    123  CA        26.3840   13.3370   13.7390 C.3   210  VAL210      0.1692
    124  C         27.5410   13.4010   12.7460 C.2   210  VAL210      0.2593
    125  O         27.3270   13.6850   11.5640 O.2   210  VAL210     -0.2718
    126  CB        25.3780   12.2520   13.3110 C.3   210  VAL210      0.0266
    127  CG1       26.0600   10.8990   13.2940 C.3   210  VAL210      0.0020
    128  CG2       24.2060   12.2260   14.2850 C.3   210  VAL210      0.0020
    129  N         28.7570   13.1390   13.2210 N.am  211  SER211     -0.1938
    130  CA        29.9450   13.2480   12.3730 C.3   211  SER211      0.2055
    131  C         30.7620   11.9770   12.1990 C.2   211  SER211      0.2643
    132  O         30.8340   11.4220   11.0990 O.2   211  SER211     -0.2714
    133  CB        30.8490   14.3690   12.9090 C.3   211  SER211      0.2130
    134  OG        31.9420   14.6230   12.0360 O.3   211  SER211     -0.2179
    135  N         31.3970   11.5170   13.2680 N.am  212  TRP212     -0.1959
    136  CA        32.1950   10.3050   13.1650 C.3   212  TRP212      0.1771
    137  C         32.4100    9.5890   14.4800 C.2   212  TRP212      0.2620
    138  O         31.8980    9.9920   15.5240 O.2   212  TRP212     -0.2715
    139  CB        33.5570   10.6070   12.5360 C.3   212  TRP212      0.0590
    140  CG        34.4270   11.5500   13.3210 C.ar  212  TRP212      0.0006
    141  CD1       34.3360   12.9110   13.3540 C.ar  212  TRP212      0.0946
    142  CD2       35.5490   11.2030   14.1480 C.ar  212  TRP212      0.0152
    143  NE1       35.3330   13.4340   14.1400 N.ar  212  TRP212     -0.2442
    144  CE2       36.0910   12.4070   14.6410 C.ar  212  TRP212      0.0810
    145  CE3       36.1460    9.9910   14.5160 C.ar  212  TRP212      0.0012
    146  CZ2       37.2020   12.4400   15.4820 C.ar  212  TRP212      0.0191
    147  CZ3       37.2510   10.0210   15.3550 C.ar  212  TRP212      0.0001
    148  CH2       37.7680   11.2400   15.8290 C.ar  212  TRP212      0.0015
    149  N         33.1670    8.5000   14.4020 N.am  213  GLY213     -0.1954
    150  CA        33.4750    7.7040   15.5690 C.3   213  GLY213      0.1869
    151  C         34.3140    6.5310   15.1130 C.2   213  GLY213      0.2309
    152  O         34.4670    6.3010   13.9140 O.2   213  GLY213     -0.2863
    153  N         34.2360    2.9640   14.6710 N.3   215  GLY215     -0.1210
    154  CA        33.3460    1.8210   14.7450 C.3   215  GLY215      0.1956
    155  C         32.2350    2.1710   15.7220 C.2   215  GLY215      0.2612
    156  O         32.4760    2.6620   16.8290 O.2   215  GLY215     -0.2717
    157  N         31.0050    1.9100   15.3290 N.am  216  CYS216     -0.1970
    158  CA        29.8650    2.2390   16.1670 C.3   216  CYS216      0.1712
    159  C         29.8060    1.4910   17.4860 C.2   216  CYS216      0.2296
    160  O         29.9350    0.2670   17.5210 O.2   216  CYS216     -0.2864
    161  CB        28.6070    1.9760   15.3790 C.3   216  CYS216      0.0983
    162  SG        28.7110    2.7010   13.7220 S.3   216  CYS216     -0.0798
    163  N         31.0240    8.7170   20.4820 N.3   223  GLY223     -0.1210
    164  CA        30.6990    9.2550   19.1760 C.3   223  GLY223      0.1956
    165  C         31.2280   10.6800   19.1390 C.2   223  GLY223      0.2612
    166  O         31.3270   11.3310   20.1840 O.2   223  GLY223     -0.2717
    167  N         31.5850   11.1650   17.9530 N.am  224  VAL224     -0.1965
    168  CA        32.0950   12.5280   17.8190 C.3   224  VAL224      0.1727
    169  C         31.1310   13.3430   16.9690 C.2   224  VAL224      0.2616
    170  O         30.6740   12.8930   15.9110 O.2   224  VAL224     -0.2715
    171  CB        33.5050   12.5480   17.1850 C.3   224  VAL224      0.0290
    172  CG1       34.0430   13.9760   17.1830 C.3   224  VAL224      0.0023
    173  CG2       34.4430   11.6340   17.9690 C.3   224  VAL224      0.0023
    174  N         30.8260   14.5440   17.4450 N.am  225  TYR225     -0.1974
    175  CA        29.8780   15.4280   16.7800 C.3   225  TYR225      0.1639
    176  C         30.4650   16.7890   16.4460 C.2   225  TYR225      0.2290
    177  O         31.2930   17.3120   17.1840 O.2   225  TYR225     -0.2864
    178  CB        28.6620   15.6270   17.6840 C.3   225  TYR225      0.0560
    179  CG        27.9900   14.3230   18.0430 C.ar  225  TYR225     -0.0198
    180  CD1       28.5380   13.4690   18.9960 C.ar  225  TYR225     -0.0009
    181  CD2       26.8540   13.9060   17.3630 C.ar  225  TYR225     -0.0009
    182  CE1       27.9680   12.2190   19.2510 C.ar  225  TYR225      0.0417
    183  CE2       26.2850   12.6770   17.6090 C.ar  225  TYR225      0.0417
    184  CZ        26.8430   11.8340   18.5470 C.ar  225  TYR225      0.1957
    185  OH        26.2800   10.5900   18.7460 O.3   225  TYR225     -0.2866
@<TRIPOS>BOND
     1     1     2    1
     2    16    15    1
     3    17    15    1
     4    14    15    1
     5    14    11    1
     6     4     3    2
     7     2     3    1
     8     2     5    1
     9     3    10   am
    10    10    11    1
    11    11    12    1
    12     5     6    1
    13    34    35    1
    14    27    26    2
    15    12    13    2
    16    12    18   am
    17    35    36    1
    18     6     7    1
    19    18    19    1
    20    26    25    1
    21    25    24    1
    22    25    28    1
    23     8     7    2
    24     7     9   am
    25    36    38   am
    26    36    37    2
    27    23    22    1
    28    22    19    1
    29    19    20    1
    30    21    20    2
    31    38    39    1
    32    28    29    1
    33    44    42    1
    34    74    73    1
    35    31    29   ar
    36    31    33   ar
    37    29    30   ar
    38    43    42    1
    39    75    73    1
    40    39    42    1
    41    39    40    1
    42    73    70    1
    43    33    32   ar
    44    41    40    2
    45    67    66    2
    46    30    32   ar
    47    40    45   am
    48    58    57   ar
    49   113   112    1
    50   113   114    1
    51   111   110    1
    52    69    70    1
    53   115   114    2
    54   119   118    2
    55   112   105   am
    56    70    71    1
    57   109   110    1
    58   109   108    1
    59    66    65    1
    60    66    68   am
    61   120   121    1
    62   120   117    1
    63    72    71    2
    64    65    64    1
    65    57    59   ar
    66    57    56    1
    67   107   108    1
    68   107   104    1
    69    45    46    1
    70   118   117    1
    71    53    54    1
    72    53    56    1
    73    53    52    1
    74   105   106    2
    75   105   104    1
    76    54    55    2
    77   117   116    1
    78   104   103    1
    79    46    47    1
    80    46    49    1
    81    60    61    1
    82    47    48    2
    83    64    61    1
    84    61    62    1
    85    51    49    1
    86   132   131    2
    87   103    99   am
    88    49    50    1
    89   125   124    2
    90   100    99    2
    91    99    98    1
    92   134   133    1
    93    62    63    2
    94   131   130    1
    95   131   135   am
    96   130   133    1
    97   130   129    1
    98   139   136    1
    99   139   140    1
   100    81    80    1
   101    81    82    1
   102   124   129   am
   103   124   123    1
   104   102   101    1
   105   102   162    1
   106   136   135    1
   107   136   137    1
   108    80    77    1
   109   127   126    1
   110   126   123    1
   111   126   128    1
   112   140   141   ar
   113   140   142   ar
   114   141   143   ar
   115    98   101    1
   116    98    97    1
   117    82    76    1
   118   122   123    1
   119   162   161    1
   120   152   151    2
   121    77    76    1
   122    77    78    1
   123   143   144   ar
   124   142   145   ar
   125   142   144   ar
   126    97    93   am
   127   149   137   am
   128   149   150    1
   129   137   138    2
   130   145   147   ar
   131   144   146   ar
   132   153   154    1
   133   154   155    1
   134   151   150    1
   135   157   155   am
   136   157   158    1
   137    78    79    2
   138   147   148   ar
   139   161   158    1
   140   146   148   ar
   141    93    94    2
   142    93    92    1
   143   155   156    2
   144   170   169    2
   145    95    96    1
   146    95    92    1
   147   158   159    1
   148   176   175    1
   149   176   177    2
   150    92    91    1
   151   175   174    1
   152   175   178    1
   153   169   174   am
   154   169   168    1
   155   172   171    1
   156   171   168    1
   157   171   173    1
   158   181   183   ar
   159   181   179   ar
   160   159   160    2
   161   183   184   ar
   162   178   179    1
   163    91    85   am
   164   168   167    1
   165   167   165   am
   166   179   180   ar
   167    86    85    2
   168    90    88   ar
   169    85    84    1
   170   184   185    1
   171   184   182   ar
   172    89    88   ar
   173    88    87    1
   174   180   182   ar
   175   165   164    1
   176   165   166    2
   177   164   163    1
   178    87    84    1
   179    84    83    1
