@<TRIPOS>MOLECULE
tmp/2c4gA00.pdb
 150 142 0 0 0
SMALL
GASTEIGER

@<TRIPOS>ATOM
      1  N         -5.9380  205.9990  101.9910 N.3    12  GLU12      -0.1245
      2  CA        -5.5790  206.4450  103.3370 C.3    12  GLU12       0.1567
      3  C         -6.8490  206.7060  104.1370 C.2    12  GLU12       0.2260
      4  O         -7.7810  207.3440  103.6550 O.2    12  GLU12      -0.2867
      5  CB        -4.7100  207.7110  103.2820 C.3    12  GLU12       0.0388
      6  CG        -5.3740  208.9230  102.6530 C.3    12  GLU12       0.1160
      7  CD        -4.4110  210.0790  102.4560 C.2    12  GLU12       0.3649
      8  OE1       -3.4520  209.9250  101.6700 O.co2  12  GLU12      -0.2457
      9  OE2       -4.6100  211.1390  103.0860 O.co2  12  GLU12      -0.2457
     10  N         -8.9750  208.5580  105.8280 N.3    14  ILE14      -0.1245
     11  CA        -9.3330  209.9560  106.0980 C.3    14  ILE14       0.1561
     12  C         -9.7650  210.2090  107.5320 C.2    14  ILE14       0.2260
     13  O         -9.3670  211.1950  108.1480 O.2    14  ILE14      -0.2867
     14  CB       -10.5370  210.4160  105.2610 C.3    14  ILE14       0.0252
     15  CG1      -10.1820  210.4940  103.7820 C.3    14  ILE14       0.0019
     16  CG2      -11.0300  211.7500  105.7810 C.3    14  ILE14       0.0019
     17  CD1      -11.3420  210.9610  102.9200 C.3    14  ILE14       0.0001
     18  N        -13.8870  206.2760  107.0350 N.3    22  VAL22      -0.1245
     19  CA       -13.9180  207.0910  105.8280 C.3    22  VAL22       0.1561
     20  C        -12.5410  207.0940  105.1760 C.2    22  VAL22       0.2260
     21  O        -11.6510  207.8360  105.5940 O.2    22  VAL22      -0.2867
     22  CB       -14.3370  208.5530  106.1330 C.3    22  VAL22       0.0252
     23  CG1      -14.4310  209.3550  104.8450 C.3    22  VAL22       0.0019
     24  CG2      -15.6660  208.5690  106.8500 C.3    22  VAL22       0.0019
     25  N        -14.2200  209.6660   98.3730 N.3    35  ALA35      -0.1245
     26  CA       -14.1530  209.5080   99.8160 C.3    35  ALA35       0.1562
     27  C        -15.0870  208.3420  100.0840 C.2    35  ALA35       0.2260
     28  O        -16.2860  208.4390   99.8670 O.2    35  ALA35      -0.2867
     29  CB       -14.6590  210.7510  100.5170 C.3    35  ALA35       0.0290
     30  N        -16.9820  205.9420  102.5760 N.3    37  LYS37      -0.1245
     31  CA       -17.4220  205.7960  103.9620 C.3    37  LYS37       0.1561
     32  C        -17.9970  204.4010  104.1990 C.2    37  LYS37       0.2260
     33  O        -19.1230  204.1070  103.7920 O.2    37  LYS37      -0.2867
     34  CB       -18.4690  206.8530  104.3170 C.3    37  LYS37       0.0271
     35  CG       -19.1060  206.6320  105.6750 C.3    37  LYS37       0.0035
     36  CD       -19.2460  207.9300  106.4520 C.3    37  LYS37       0.0206
     37  CE       -20.0280  208.9850  105.6820 C.3    37  LYS37       0.1093
     38  NZ       -20.2250  210.2560  106.4660 N.3    37  LYS37      -0.1314
     39  N        -28.9900  210.5300  105.6630 N.3    55  GLU55      -0.1245
     40  CA       -27.9770  211.1910  104.8590 C.3    55  GLU55       0.1567
     41  C        -28.1690  210.8200  103.3810 C.2    55  GLU55       0.2260
     42  O        -28.1440  211.6920  102.5110 O.2    55  GLU55      -0.2867
     43  CB       -26.5580  210.8350  105.3430 C.3    55  GLU55       0.0388
     44  CG       -25.4490  211.5660  104.5640 C.3    55  GLU55       0.1160
     45  CD       -24.0770  211.5410  105.2500 C.2    55  GLU55       0.3649
     46  OE1      -23.6830  210.4810  105.7950 O.co2  55  GLU55      -0.2457
     47  OE2      -23.3850  212.5880  105.2270 O.co2  55  GLU55      -0.2457
     48  N        -21.7000  218.5890   99.5080 N.3    68  VAL68      -0.1245
     49  CA       -20.9290  217.4280   99.0820 C.3    68  VAL68       0.1561
     50  C        -21.8050  216.5350   98.2030 C.2    68  VAL68       0.2260
     51  O        -23.0260  216.4240   98.4070 O.2    68  VAL68      -0.2867
     52  CB       -20.3790  216.6180  100.2760 C.3    68  VAL68       0.0252
     53  CG1      -21.5070  215.8580  100.9730 C.3    68  VAL68       0.0019
     54  CG2      -19.2890  215.6710   99.7850 C.3    68  VAL68       0.0019
     55  N        -18.5550  209.3180   98.2230 N.3    84  PHE84      -0.1227
     56  CA       -18.6600  210.7690   98.0640 C.3    84  PHE84       0.1736
     57  C        -17.5620  211.3170   97.1870 C.2    84  PHE84       0.2595
     58  O        -16.5220  210.6890   97.0240 O.2    84  PHE84      -0.2718
     59  CB       -18.5250  211.4900   99.4040 C.3    84  PHE84       0.0547
     60  CG       -19.5740  211.1320  100.4120 C.ar   84  PHE84      -0.0202
     61  CD1      -19.4440  209.9940  101.1940 C.ar   84  PHE84      -0.0042
     62  CD2      -20.6660  211.9640  100.6150 C.ar   84  PHE84      -0.0042
     63  CE1      -20.3830  209.6960  102.1670 C.ar   84  PHE84      -0.0003
     64  CE2      -21.6030  211.6710  101.5830 C.ar   84  PHE84      -0.0003
     65  CZ       -21.4620  210.5350  102.3640 C.ar   84  PHE84      -0.0000
     66  N        -17.8040  212.4960   96.6250 N.am   85  GLU85      -0.1965
     67  CA       -16.7900  213.1590   95.8320 C.3    85  GLU85       0.1733
     68  C        -15.7570  213.4890   96.9020 C.2    85  GLU85       0.2616
     69  O        -16.1120  213.7520   98.0440 O.2    85  GLU85      -0.2715
     70  CB       -17.3250  214.4470   95.2180 C.3    85  GLU85       0.0429
     71  CG       -17.9070  215.4250   96.2150 C.3    85  GLU85       0.1163
     72  CD       -18.0430  216.8460   95.6540 C.2    85  GLU85       0.3649
     73  OE1      -18.9940  217.5710   96.0410 O.co2  85  GLU85      -0.2457
     74  OE2      -17.1870  217.2540   94.8390 O.co2  85  GLU85      -0.2457
     75  N        -14.4800  213.4530   96.5550 N.am   86  PHE86      -0.1960
     76  CA       -13.4520  213.7470   97.5390 C.3    86  PHE86       0.1771
     77  C        -12.9870  215.2100   97.5570 C.2    86  PHE86       0.2619
     78  O        -12.7480  215.8090   96.5170 O.2    86  PHE86      -0.2715
     79  CB       -12.2570  212.8050   97.3250 C.3    86  PHE86       0.0574
     80  CG       -11.0240  213.1950   98.1020 C.ar   86  PHE86      -0.0200
     81  CD1      -10.1480  214.1630   97.6180 C.ar   86  PHE86      -0.0042
     82  CD2      -10.7560  212.6150   99.3260 C.ar   86  PHE86      -0.0042
     83  CE1       -9.0340  214.5410   98.3420 C.ar   86  PHE86      -0.0003
     84  CE2       -9.6410  212.9920  100.0530 C.ar   86  PHE86      -0.0003
     85  CZ        -8.7830  213.9540   99.5600 C.ar   86  PHE86      -0.0000
     86  N        -12.9000  215.7790   98.7580 N.am   87  LEU87      -0.1963
     87  CA       -12.4120  217.1470   98.9550 C.3    87  LEU87       0.1728
     88  C        -11.1950  217.0410   99.8720 C.2    87  LEU87       0.2616
     89  O        -11.1730  216.2560  100.8240 O.2    87  LEU87      -0.2715
     90  CB       -13.4800  218.0660   99.5580 C.3    87  LEU87       0.0311
     91  CG       -14.5200  218.5100   98.5230 C.3    87  LEU87       0.0022
     92  CD1      -15.6760  217.5460   98.5380 C.3    87  LEU87       0.0001
     93  CD2      -15.0100  219.9120   98.8170 C.3    87  LEU87       0.0001
     94  N        -10.1860  217.8400   99.5630 N.am   88  HIS88      -0.1959
     95  CA        -8.9020  217.8220  100.2480 C.3    88  HIS88       0.1787
     96  C         -8.8080  218.0700  101.7490 C.2    88  HIS88       0.2620
     97  O         -7.9260  217.5110  102.4040 O.2    88  HIS88      -0.2715
     98  CB        -7.9660  218.7640   99.4930 C.3    88  HIS88       0.0785
     99  CG        -8.1980  218.7530   98.0110 C.ar   88  HIS88       0.0821
    100  ND1       -9.2520  219.4190   97.4180 N.ar   88  HIS88      -0.2267
    101  CD2       -7.5590  218.0990   97.0110 C.ar   88  HIS88       0.1154
    102  CE1       -9.2510  219.1770   96.1200 C.ar   88  HIS88       0.1986
    103  NE2       -8.2350  218.3780   95.8470 N.ar   88  HIS88      -0.2212
    104  N         -9.7050  218.8760  102.3100 N.am   89  GLN89      -0.1963
    105  CA        -9.6260  219.1640  103.7380 C.3    89  GLN89       0.1733
    106  C        -10.8830  219.7760  104.3500 C.2    89  GLN89       0.2616
    107  O        -11.7250  220.3210  103.6360 O.2    89  GLN89      -0.2715
    108  CB        -8.4580  220.1050  103.9670 C.3    89  GLN89       0.0408
    109  CG        -8.2030  220.4270  105.3990 C.3    89  GLN89       0.0908
    110  CD        -7.1380  221.4770  105.5370 C.2    89  GLN89       0.2608
    111  OE1       -7.2700  222.5780  105.0000 O.2    89  GLN89      -0.2717
    112  NE2       -6.0680  221.1500  106.2540 N.am   89  GLN89      -0.0878
    113  N        -11.0190  219.6860  105.6750 N.am   90  ASP90      -0.1971
    114  CA       -12.1820  220.2950  106.3330 C.3    90  ASP90       0.1709
    115  C        -11.8180  221.6550  106.9400 C.2    90  ASP90       0.2293
    116  O        -10.6420  221.9510  107.1780 O.2    90  ASP90      -0.2864
    117  CB       -12.8000  219.3620  107.3980 C.3    90  ASP90       0.1436
    118  CG       -11.8780  219.0930  108.5750 C.2    90  ASP90       0.3671
    119  OD1      -11.4760  220.0510  109.2690 O.co2  90  ASP90      -0.2456
    120  OD2      -11.5730  217.9090  108.8180 O.co2  90  ASP90      -0.2456
    121  N         -9.4780  221.7700  110.3440 N.3    93  LYS93      -0.1245
    122  CA        -8.0390  221.6200  110.1300 C.3    93  LYS93       0.1561
    123  C         -7.4710  222.8590  109.4340 C.2    93  LYS93       0.2260
    124  O         -6.3540  223.2940  109.7300 O.2    93  LYS93      -0.2867
    125  CB        -7.7410  220.3820  109.2890 C.3    93  LYS93       0.0271
    126  CG        -8.0050  219.0810  110.0090 C.3    93  LYS93       0.0035
    127  CD        -7.6660  217.8890  109.1300 C.3    93  LYS93       0.0206
    128  CE        -7.8780  216.5790  109.8760 C.3    93  LYS93       0.1093
    129  NZ        -9.2660  216.4610  110.4050 N.3    93  LYS93      -0.1314
    130  N        -16.3530  221.0250  104.1920 N.3   138  LEU138     -0.1245
    131  CA       -15.2070  220.6470  103.3770 C.3   138  LEU138      0.1561
    132  C        -14.8020  221.6920  102.3480 C.2   138  LEU138      0.2260
    133  O        -15.6450  222.3550  101.7450 O.2   138  LEU138     -0.2867
    134  CB       -15.5060  219.3390  102.6640 C.3   138  LEU138      0.0270
    135  CG       -15.9600  218.1980  103.5780 C.3   138  LEU138      0.0019
    136  CD1      -16.4080  217.0450  102.6960 C.3   138  LEU138      0.0001
    137  CD2      -14.8390  217.7790  104.5300 C.3   138  LEU138      0.0001
    138  N        -21.1810  219.1720  104.4370 N.3   148  ALA148     -0.1231
    139  CA       -21.0900  217.7210  104.3790 C.3   148  ALA148      0.1694
    140  C        -21.5860  217.0950  105.6830 C.2   148  ALA148      0.2592
    141  O        -22.0080  217.7950  106.6000 O.2   148  ALA148     -0.2718
    142  CB       -19.6580  217.2940  104.1030 C.3   148  ALA148      0.0304
    143  N        -21.5350  215.7740  105.7530 N.am  149  ASP149     -0.1974
    144  CA       -21.9740  215.0530  106.9360 C.3   149  ASP149      0.1709
    145  C        -23.4230  215.3800  107.2920 C.2   149  ASP149      0.2293
    146  O        -23.6950  216.1970  108.1620 O.2   149  ASP149     -0.2864
    147  CB       -21.0660  215.3780  108.1170 C.3   149  ASP149      0.1436
    148  CG       -21.0000  214.2470  109.1140 C.2   149  ASP149      0.3671
    149  OD1      -22.0750  213.8100  109.5800 O.co2 149  ASP149     -0.2456
    150  OD2      -19.8770  213.7920  109.4230 O.co2 149  ASP149     -0.2456
@<TRIPOS>BOND
     1    74    72   ar
     2    70    67    1
     3    70    71    1
     4    72    73   ar
     5    72    71    1
     6    67    66    1
     7    67    68    1
     8   103   102   ar
     9   103   101   ar
    10   102   100   ar
    11    78    77    2
    12    75    68   am
    13    75    76    1
    14    66    57   am
    15    68    69    2
    16   101    99   ar
    17    58    57    2
    18    57    56    1
    19    79    76    1
    20    79    80    1
    21   100    99   ar
    22    76    77    1
    23    77    86   am
    24    81    80   ar
    25    81    83   ar
    26    99    98    1
    27    56    55    1
    28    56    59    1
    29    80    82   ar
    30    50    51    2
    31    50    49    1
    32    83    85   ar
    33    25    26    1
    34    91    92    1
    35    91    93    1
    36    91    90    1
    37    86    87    1
    38    87    90    1
    39    87    88    1
    40    49    48    1
    41    49    52    1
    42    82    84   ar
    43    59    60    1
    44    98    95    1
    45    85    84   ar
    46    94    88   am
    47    94    95    1
    48    54    52    1
    49    26    27    1
    50    26    29    1
    51    28    27    2
    52    88    89    2
    53    95    96    1
    54    52    53    1
    55    60    62   ar
    56    60    61   ar
    57    62    64   ar
    58    61    63   ar
    59    64    65   ar
    60     8     7   ar
    61   133   132    2
    62    96   104   am
    63    96    97    2
    64     1     2    1
    65    63    65   ar
    66   104   105    1
    67   132   131    1
    68     7     6    1
    69     7     9   ar
    70    42    41    2
    71    30    31    1
    72     6     5    1
    73   134   131    1
    74   134   135    1
    75   136   135    1
    76    17    15    1
    77     5     2    1
    78     2     3    1
    79   131   130    1
    80    41    40    1
    81   135   137    1
    82   107   106    2
    83     4     3    2
    84   105   108    1
    85   105   106    1
    86    15    14    1
    87    33    32    2
    88    31    32    1
    89    31    34    1
    90   108   109    1
    91   142   139    1
    92    34    35    1
    93   106   113   am
    94   139   138    1
    95   139   140    1
    96    44    45    1
    97    44    43    1
    98    23    22    1
    99    40    43    1
   100    40    39    1
   101   111   110    2
   102    20    21    2
   103    20    19    1
   104    47    45   ar
   105    45    46   ar
   106    14    16    1
   107    14    11    1
   108   109   110    1
   109   110   112   am
   110   113   114    1
   111    35    36    1
   112    37    36    1
   113    37    38    1
   114   140   143   am
   115   140   141    2
   116   143   144    1
   117    10    11    1
   118    19    22    1
   119    19    18    1
   120    11    12    1
   121    22    24    1
   122   114   115    1
   123   114   117    1
   124   144   145    1
   125   144   147    1
   126   115   116    2
   127   145   146    2
   128   117   118    1
   129    12    13    2
   130   147   148    1
   131   118   120   ar
   132   118   119   ar
   133   148   150   ar
   134   148   149   ar
   135   127   128    1
   136   127   126    1
   137   125   126    1
   138   125   122    1
   139   123   124    2
   140   123   122    1
   141   128   129    1
   142   122   121    1
