@<TRIPOS>MOLECULE
tmp/2c4hA02.pdb
 127 128 0 0 0
SMALL
GASTEIGER

@<TRIPOS>ATOM
      1  N          0.4020   74.2730   64.0520 N.3    81  TRP81      -0.1241
      2  CA         0.2760   73.0410   63.2760 C.3    81  TRP81       0.1605
      3  C         -1.1570   72.5010   63.3030 C.2    81  TRP81       0.2264
      4  O         -1.5310   71.6560   62.4840 O.2    81  TRP81      -0.2867
      5  CB         1.2410   71.9700   63.8020 C.3    81  TRP81       0.0550
      6  CG         2.6820   72.4000   63.7870 C.ar   81  TRP81       0.0003
      7  CD1        3.4480   72.7290   64.8700 C.ar   81  TRP81       0.0946
      8  CD2        3.5170   72.5850   62.6320 C.ar   81  TRP81       0.0152
      9  NE1        4.7050   73.1100   64.4630 N.ar   81  TRP81      -0.2442
     10  CE2        4.7750   73.0310   63.0950 C.ar   81  TRP81       0.0810
     11  CE3        3.3240   72.4180   61.2530 C.ar   81  TRP81       0.0012
     12  CZ2        5.8400   73.3140   62.2250 C.ar   81  TRP81       0.0191
     13  CZ3        4.3840   72.7020   60.3870 C.ar   81  TRP81       0.0001
     14  CH2        5.6250   73.1450   60.8800 C.ar   81  TRP81       0.0015
     15  N          2.5130   67.1160   55.9860 N.3   114  GLY114     -0.1210
     16  CA         2.8630   65.9980   56.8380 C.3   114  GLY114      0.1956
     17  C          1.9140   65.9890   58.0230 C.2   114  GLY114      0.2612
     18  O          0.8600   66.6290   57.9870 O.2   114  GLY114     -0.2717
     19  N          2.2880   65.2800   59.0830 N.am  115  GLY115     -0.1956
     20  CA         1.4450   65.1990   60.2630 C.3   115  GLY115      0.1869
     21  C          1.2470   63.7590   60.7170 C.2   115  GLY115      0.2309
     22  O          0.2250   63.4320   61.3140 O.2   115  GLY115     -0.2863
     23  N          2.2090   77.2110   55.3600 N.3   127  TYR127     -0.1241
     24  CA         2.1010   76.5630   54.0450 C.3   127  TYR127      0.1605
     25  C          1.5410   77.5190   52.9800 C.2   127  TYR127      0.2264
     26  O          1.2280   77.0930   51.8660 O.2   127  TYR127     -0.2867
     27  CB         1.1890   75.3280   54.0830 C.3   127  TYR127      0.0534
     28  CG         1.6100   74.1900   54.9950 C.ar  127  TYR127     -0.0201
     29  CD1        2.9490   73.9820   55.3370 C.ar  127  TYR127     -0.0009
     30  CD2        0.6610   73.3080   55.5000 C.ar  127  TYR127     -0.0009
     31  CE1        3.3210   72.9160   56.1720 C.ar  127  TYR127      0.0417
     32  CE2        1.0200   72.2500   56.3260 C.ar  127  TYR127      0.0417
     33  CZ         2.3450   72.0600   56.6620 C.ar  127  TYR127      0.1957
     34  OH         2.6750   71.0250   57.5090 O.3   127  TYR127     -0.2866
     35  N          6.7020   67.3190   53.4740 N.3   196  GLU196     -0.1231
     36  CA         7.5750   67.1070   54.6190 C.3   196  GLU196      0.1699
     37  C          7.0490   65.9910   55.5140 C.2   196  GLU196      0.2592
     38  O          5.8420   65.8300   55.6860 O.2   196  GLU196     -0.2718
     39  CB         7.7330   68.4250   55.3970 C.3   196  GLU196      0.0402
     40  CG         8.6800   68.3710   56.5950 C.3   196  GLU196      0.1161
     41  CD         7.9710   68.0120   57.8880 C.2   196  GLU196      0.3649
     42  OE1        6.7200   68.0000   57.9040 O.co2 196  GLU196     -0.2457
     43  OE2        8.6610   67.7550   58.8950 O.co2 196  GLU196     -0.2457
     44  N          7.9790   65.2110   56.0600 N.am  197  SER197     -0.1952
     45  CA         7.6610   64.0820   56.9260 C.3   197  SER197      0.1924
     46  C          6.6330   63.1540   56.2660 C.2   197  SER197      0.2314
     47  O          6.9250   62.5700   55.2230 O.2   197  SER197     -0.2863
     48  CB         7.1590   64.5860   58.2720 C.3   197  SER197      0.2116
     49  OG         7.2980   63.5750   59.2500 O.3   197  SER197     -0.2180
     50  N         10.9210   66.8250   69.1560 N.3   327  PHE327     -0.1227
     51  CA         9.4870   67.0500   69.3260 C.3   327  PHE327      0.1736
     52  C          8.8190   65.8310   69.9400 C.2   327  PHE327      0.2595
     53  O          8.0040   65.9440   70.8510 O.2   327  PHE327     -0.2718
     54  CB         8.8250   67.3290   67.9740 C.3   327  PHE327      0.0547
     55  CG         7.3340   67.2190   68.0010 C.ar  327  PHE327     -0.0202
     56  CD1        6.5200   68.3490   67.9840 C.ar  327  PHE327     -0.0042
     57  CD2        6.7430   66.0020   68.0580 C.ar  327  PHE327     -0.0042
     58  CE1        5.1260   68.2450   68.0230 C.ar  327  PHE327     -0.0003
     59  CE2        5.4290   65.9160   68.1020 C.ar  327  PHE327     -0.0003
     60  CZ         4.6030   67.0410   68.0830 C.ar  327  PHE327     -0.0000
     61  N          9.1630   64.6630   69.4210 N.am  328  PHE328     -0.1976
     62  CA         8.5550   63.4330   69.8820 C.3   328  PHE328      0.1639
     63  C          8.9740   62.9910   71.2720 C.2   328  PHE328      0.2290
     64  O          8.2330   62.2800   71.9420 O.2   328  PHE328     -0.2864
     65  CB         8.7940   62.3380   68.8380 C.3   328  PHE328      0.0560
     66  CG         8.3290   62.7280   67.4520 C.ar  328  PHE328     -0.0200
     67  CD1        9.1830   63.3970   66.5720 C.ar  328  PHE328     -0.0042
     68  CD2        7.0090   62.5210   67.0690 C.ar  328  PHE328     -0.0042
     69  CE1        8.7200   63.8570   65.3400 C.ar  328  PHE328     -0.0003
     70  CE2        6.5440   62.9780   65.8450 C.ar  328  PHE328     -0.0003
     71  CZ         7.4000   63.6470   64.9840 C.ar  328  PHE328     -0.0000
     72  N         10.1110   77.4420   70.6080 N.3   429  TRP429     -0.1241
     73  CA        10.3790   76.1980   71.3270 C.3   429  TRP429      0.1605
     74  C         11.7190   76.3400   72.0380 C.2   429  TRP429      0.2264
     75  O         12.5910   77.0850   71.5860 O.2   429  TRP429     -0.2867
     76  CB        10.4440   75.0060   70.3640 C.3   429  TRP429      0.0550
     77  CG         9.1190   74.6060   69.7780 C.ar  429  TRP429      0.0003
     78  CD1        8.6440   74.9120   68.5370 C.ar  429  TRP429      0.0946
     79  CD2        8.1000   73.8300   70.4180 C.ar  429  TRP429      0.0152
     80  NE1        7.3920   74.3730   68.3610 N.ar  429  TRP429     -0.2442
     81  CE2        7.0330   73.7030   69.5010 C.ar  429  TRP429      0.0810
     82  CE3        7.9840   73.2290   71.6790 C.ar  429  TRP429      0.0012
     83  CZ2        5.8610   72.9960   69.8030 C.ar  429  TRP429      0.0191
     84  CZ3        6.8170   72.5280   71.9800 C.ar  429  TRP429      0.0001
     85  CH2        5.7740   72.4180   71.0450 C.ar  429  TRP429      0.0015
     86  N         14.4680   71.7850   65.0590 N.3   436  ILE436     -0.1231
     87  CA        13.2830   70.9500   65.1160 C.3   436  ILE436      0.1692
     88  C         12.6700   70.4240   63.8240 C.2   436  ILE436      0.2592
     89  O         12.7460   71.0360   62.7560 O.2   436  ILE436     -0.2718
     90  CB        12.1930   71.6830   65.9260 C.3   436  ILE436      0.0266
     91  CG1       12.7790   72.1020   67.2820 C.3   436  ILE436      0.0019
     92  CG2       10.9730   70.7910   66.1290 C.3   436  ILE436      0.0020
     93  CD1       11.9410   73.1020   68.0270 C.3   436  ILE436      0.0001
     94  N         12.0670   69.2510   63.9680 N.am  437  HIS437     -0.1962
     95  CA        11.3600   68.5610   62.9130 C.3   437  HIS437      0.1787
     96  C         10.3390   69.5590   62.3590 C.2   437  HIS437      0.2621
     97  O          9.5600   70.1260   63.1140 O.2   437  HIS437     -0.2715
     98  CB        10.6560   67.3590   63.5470 C.3   437  HIS437      0.0785
     99  CG         9.7920   66.5780   62.6120 C.ar  437  HIS437      0.0821
    100  ND1       10.3020   65.6870   61.6930 N.ar  437  HIS437     -0.2267
    101  CD2        8.4450   66.5000   62.5070 C.ar  437  HIS437      0.1154
    102  CE1        9.3050   65.0880   61.0660 C.ar  437  HIS437      0.1986
    103  NE2        8.1670   65.5630   61.5410 N.ar  437  HIS437     -0.2212
    104  N         10.3680   69.7960   61.0500 N.am  438  GLY438     -0.1940
    105  CA         9.4110   70.7050   60.4430 C.3   438  GLY438      0.2014
    106  C          9.7460   72.1870   60.4100 C.2   438  GLY438      0.2638
    107  O          8.9950   72.9750   59.8290 O.2   438  GLY438     -0.2714
    108  N         10.8630   72.5860   61.0040 N.am  439  TYR439     -0.1973
    109  CA        11.1870   73.9980   61.0010 C.3   439  TYR439      0.1639
    110  C         12.0640   74.4910   59.8630 C.2   439  TYR439      0.2290
    111  O         12.6590   75.5730   59.9370 O.2   439  TYR439     -0.2864
    112  CB        11.7150   74.4230   62.3770 C.3   439  TYR439      0.0560
    113  CG        10.5510   74.5820   63.3300 C.ar  439  TYR439     -0.0198
    114  CD1        9.9770   73.4730   63.9570 C.ar  439  TYR439     -0.0009
    115  CD2        9.9160   75.8190   63.4780 C.ar  439  TYR439     -0.0009
    116  CE1        8.7970   73.5870   64.7010 C.ar  439  TYR439      0.0417
    117  CE2        8.7320   75.9460   64.2150 C.ar  439  TYR439      0.0417
    118  CZ         8.1780   74.8240   64.8210 C.ar  439  TYR439      0.1957
    119  OH         6.9980   74.9340   65.5200 O.3   439  TYR439     -0.2866
    120  N         10.5120   74.1290   56.9210 N.3   441  ILE441     -0.1245
    121  CA         9.3560   74.4820   56.0990 C.3   441  ILE441      0.1561
    122  C          9.1630   75.9880   55.9280 C.2   441  ILE441      0.2260
    123  O          9.0040   76.4740   54.8030 O.2   441  ILE441     -0.2867
    124  CB         8.0490   73.8760   56.6760 C.3   441  ILE441      0.0252
    125  CG1        8.1520   72.3440   56.7020 C.3   441  ILE441      0.0019
    126  CG2        6.8510   74.2880   55.8220 C.3   441  ILE441      0.0019
    127  CD1        6.9750   71.6600   57.3640 C.3   441  ILE441      0.0001
@<TRIPOS>BOND
     1    26    25    2
     2    25    24    1
     3    35    36    1
     4    24    27    1
     5    24    23    1
     6    27    28    1
     7    36    39    1
     8    36    37    1
     9   123   122    2
    10    28    29   ar
    11    28    30   ar
    12    47    46    2
    13    29    31   ar
    14    39    40    1
    15    30    32   ar
    16    37    38    2
    17    37    44   am
    18   126   124    1
    19   122   121    1
    20    15    16    1
    21    44    45    1
    22   121   124    1
    23   121   120    1
    24    31    33   ar
    25    46    45    1
    26    32    33   ar
    27    40    41    1
    28    33    34    1
    29   124   125    1
    30   125   127    1
    31    16    17    1
    32    45    48    1
    33    41    42   ar
    34    41    43   ar
    35    18    17    2
    36    17    19   am
    37    48    49    1
    38    19    20    1
    39   107   106    2
    40   110   111    2
    41   110   109    1
    42    20    21    1
    43    13    14   ar
    44    13    11   ar
    45   106   105    1
    46   106   108   am
    47   105   104    1
    48    21    22    2
    49    14    12   ar
    50   109   108    1
    51   109   112    1
    52   104    96   am
    53   102   103   ar
    54   102   100   ar
    55    11     8   ar
    56   103   101   ar
    57   100    99   ar
    58    12    10   ar
    59    96    95    1
    60    96    97    2
    61   112   113    1
    62     4     3    2
    63   101    99   ar
    64    99    98    1
    65     8    10   ar
    66     8     6   ar
    67    89    88    2
    68    95    98    1
    69    95    94    1
    70    10     9   ar
    71     2     3    1
    72     2     5    1
    73     2     1    1
    74   113   115   ar
    75   113   114   ar
    76   115   117   ar
    77     6     5    1
    78     6     7   ar
    79    88    94   am
    80    88    87    1
    81   114   116   ar
    82   117   118   ar
    83     9     7   ar
    84   116   118   ar
    85   118   119    1
    86    71    69   ar
    87    71    70   ar
    88    86    87    1
    89    87    90    1
    90    69    67   ar
    91    70    68   ar
    92    90    92    1
    93    90    91    1
    94    67    66   ar
    95    68    66   ar
    96    91    93    1
    97    66    65    1
    98    54    55    1
    99    54    51    1
   100    56    55   ar
   101    56    58   ar
   102    55    57   ar
   103    58    60   ar
   104    57    59   ar
   105    60    59   ar
   106    80    78   ar
   107    80    81   ar
   108    78    77   ar
   109    65    62    1
   110    50    51    1
   111    51    52    1
   112    61    62    1
   113    61    52   am
   114    81    83   ar
   115    81    79   ar
   116    77    76    1
   117    77    79   ar
   118    83    85   ar
   119    62    63    1
   120    52    53    2
   121    76    73    1
   122    79    82   ar
   123    72    73    1
   124    85    84   ar
   125    63    64    2
   126    73    74    1
   127    75    74    2
   128    82    84   ar
