@<TRIPOS>MOLECULE
tmp/2c4iA01.pdb
 155 145 0 0 0
SMALL
GASTEIGER

@<TRIPOS>ATOM
      1  N         29.8830   -7.9370   -0.0050 N.3   120  SER120     -0.1217
      2  CA        30.4770   -7.4870    1.2580 C.3   120  SER120      0.1889
      3  C         29.4980   -7.5290    2.4330 C.2   120  SER120      0.2288
      4  O         28.3010   -7.7800    2.2800 O.2   120  SER120     -0.2866
      5  CB        31.0140   -6.0760    1.0510 C.3   120  SER120      0.2089
      6  OG        29.9310   -5.2760    0.6620 O.3   120  SER120     -0.2183
      7  N         28.6950   -5.3970    6.3160 N.3   122  THR122     -0.1218
      8  CA        29.0700   -4.4090    7.3350 C.3   122  THR122      0.1862
      9  C         28.4710   -4.8230    8.6610 C.2   122  THR122      0.2287
     10  O         27.3200   -5.2410    8.7130 O.2   122  THR122     -0.2866
     11  CB        28.6200   -2.9730    6.9850 C.3   122  THR122      0.1770
     12  OG1       29.1130   -2.6190    5.6890 O.3   122  THR122     -0.2211
     13  CG2       29.1950   -1.9490    8.0230 C.3   122  THR122      0.0375
     14  N         27.9210   -3.0400   12.4800 N.3   124  PHE124     -0.1241
     15  CA        27.8680   -1.8220   13.2780 C.3   124  PHE124      0.1605
     16  C         27.7410   -2.2260   14.7370 C.2   124  PHE124      0.2264
     17  O         27.0270   -3.1780   15.0860 O.2   124  PHE124     -0.2867
     18  CB        26.6050   -0.9860   12.9440 C.3   124  PHE124      0.0534
     19  CG        26.6020   -0.3700   11.5360 C.ar  124  PHE124     -0.0203
     20  CD1       26.8640    0.9990   11.3390 C.ar  124  PHE124     -0.0042
     21  CD2       26.2970   -1.1500   10.4230 C.ar  124  PHE124     -0.0042
     22  CE1       26.8290    1.5640   10.0170 C.ar  124  PHE124     -0.0003
     23  CE2       26.2520   -0.5960    9.1170 C.ar  124  PHE124     -0.0003
     24  CZ        26.5230    0.7580    8.9220 C.ar  124  PHE124     -0.0000
     25  N         31.7470    1.0110   12.6890 N.3   142  TRP142     -0.1241
     26  CA        31.5120   -0.1060   11.7680 C.3   142  TRP142      0.1605
     27  C         32.7950   -0.6360   11.1600 C.2   142  TRP142      0.2264
     28  O         33.8130    0.0620   11.0930 O.2   142  TRP142     -0.2867
     29  CB        30.5020    0.2620   10.6630 C.3   142  TRP142      0.0550
     30  CG        30.8020    1.5750    9.9790 C.ar  142  TRP142      0.0003
     31  CD1       30.2230    2.7910   10.2450 C.ar  142  TRP142      0.0946
     32  CD2       31.7300    1.7850    8.9240 C.ar  142  TRP142      0.0152
     33  NE1       30.7750    3.7680    9.4270 N.ar  142  TRP142     -0.2442
     34  CE2       31.6980    3.1670    8.6060 C.ar  142  TRP142      0.0810
     35  CE3       32.6240    0.9410    8.2240 C.ar  142  TRP142      0.0012
     36  CZ2       32.4990    3.7240    7.6010 C.ar  142  TRP142      0.0191
     37  CZ3       33.4360    1.5020    7.2300 C.ar  142  TRP142      0.0001
     38  CH2       33.3600    2.9000    6.9310 C.ar  142  TRP142      0.0015
     39  N         33.6290   -2.5850    7.4550 N.3   144  LEU144     -0.1245
     40  CA        33.0900   -2.9790    6.1510 C.3   144  LEU144      0.1561
     41  C         34.0700   -3.9580    5.5890 C.2   144  LEU144      0.2260
     42  O         35.2050   -3.6060    5.2670 O.2   144  LEU144     -0.2867
     43  CB        32.9660   -1.7710    5.2080 C.3   144  LEU144      0.0270
     44  CG        32.8910   -2.0010    3.6770 C.3   144  LEU144      0.0019
     45  CD1       31.6990   -2.8380    3.2760 C.3   144  LEU144      0.0001
     46  CD2       32.8760   -0.5810    3.0040 C.3   144  LEU144      0.0001
     47  N         35.1590   -6.3940    2.6730 N.3   146  SER146     -0.1217
     48  CA        35.0830   -6.6850    1.2400 C.3   146  SER146      0.1889
     49  C         35.5160   -8.1170    1.0190 C.2   146  SER146      0.2288
     50  O         36.2860   -8.6800    1.7920 O.2   146  SER146     -0.2866
     51  CB        36.0410   -5.7620    0.4730 C.3   146  SER146      0.2089
     52  OG        35.6180   -4.4110    0.5870 O.3   146  SER146     -0.2183
     53  N         29.3230    6.0630   12.3860 N.3   163  ASN163     -0.1240
     54  CA        28.0570    6.7000   11.9850 C.3   163  ASN163      0.1653
     55  C         27.2670    7.1040   13.1920 C.2   163  ASN163      0.2266
     56  O         27.1570    6.3500   14.1810 O.2   163  ASN163     -0.2867
     57  CB        27.1410    5.7950   11.1110 C.3   163  ASN163      0.1155
     58  CG        27.5530    5.7650    9.6170 C.2   163  ASN163      0.2627
     59  OD1       27.7320    4.6970    9.0450 O.2   163  ASN163     -0.2716
     60  ND2       27.7050    6.9250    9.0030 N.am  163  ASN163     -0.0877
     61  N         21.4570    8.5170    9.0930 N.3   181  ASN181     -0.1240
     62  CA        22.7820    8.7740    9.6240 C.3   181  ASN181      0.1653
     63  C         23.3920    9.9790    8.9510 C.2   181  ASN181      0.2266
     64  O         22.7420   10.6240    8.1390 O.2   181  ASN181     -0.2867
     65  CB        23.6840    7.5390    9.6270 C.3   181  ASN181      0.1155
     66  CG        24.1300    7.1000    8.2590 C.2   181  ASN181      0.2627
     67  OD1       24.1390    7.8690    7.3080 O.2   181  ASN181     -0.2716
     68  ND2       24.5500    5.8420    8.1600 N.am  181  ASN181     -0.0877
     69  N         25.7250   10.2290    6.8320 N.3   183  LEU183     -0.1245
     70  CA        26.0250   10.0680    5.4160 C.3   183  LEU183      0.1561
     71  C         24.7700   10.0930    4.5150 C.2   183  LEU183      0.2260
     72  O         24.8870   10.0120    3.2870 O.2   183  LEU183     -0.2867
     73  CB        26.7690    8.7430    5.2040 C.3   183  LEU183      0.0270
     74  CG        28.1240    8.5890    5.9050 C.3   183  LEU183      0.0019
     75  CD1       28.7340    7.2180    5.5900 C.3   183  LEU183      0.0001
     76  CD2       29.0920    9.7400    5.5470 C.3   183  LEU183      0.0001
     77  N         22.3060    7.8200    4.6740 N.3   185  SER185     -0.1217
     78  CA        21.6880    6.5140    4.7180 C.3   185  SER185      0.1889
     79  C         20.4900    6.4490    5.6570 C.2   185  SER185      0.2288
     80  O         20.3600    7.2350    6.5930 O.2   185  SER185     -0.2866
     81  CB        22.7290    5.4610    5.0660 C.3   185  SER185      0.2089
     82  OG        23.8600    5.5810    4.2180 O.3   185  SER185     -0.2183
     83  N         18.0940   -1.6050    5.3750 N.3   202  TYR202     -0.1241
     84  CA        19.1010   -0.5510    5.2900 C.3   202  TYR202      0.1605
     85  C         19.2430   -0.1280    3.8320 C.2   202  TYR202      0.2264
     86  O         19.4800   -0.9620    2.9490 O.2   202  TYR202     -0.2867
     87  CB        20.4570   -1.0640    5.8300 C.3   202  TYR202      0.0534
     88  CG        21.4280    0.0130    6.3120 C.ar  202  TYR202     -0.0201
     89  CD1       21.6170    0.2420    7.6800 C.ar  202  TYR202     -0.0009
     90  CD2       22.1780    0.7640    5.4120 C.ar  202  TYR202     -0.0009
     91  CE1       22.4910    1.2230    8.1310 C.ar  202  TYR202      0.0417
     92  CE2       23.0650    1.7500    5.8540 C.ar  202  TYR202      0.0417
     93  CZ        23.2030    1.9680    7.2310 C.ar  202  TYR202      0.1957
     94  OH        24.0770    2.8990    7.6900 O.3   202  TYR202     -0.2866
     95  N         21.7610    2.3360    1.9490 N.3   204  THR204     -0.1218
     96  CA        22.9420    3.2050    2.0920 C.3   204  THR204      0.1862
     97  C         22.8960    4.3130    1.0340 C.2   204  THR204      0.2287
     98  O         22.5100    4.0730   -0.1090 O.2   204  THR204     -0.2866
     99  CB        24.2400    2.3990    2.0070 C.3   204  THR204      0.1770
    100  OG1       25.3730    3.2670    2.0230 O.3   204  THR204     -0.2211
    101  CG2       24.2930    1.5550    0.7490 C.3   204  THR204      0.0375
    102  N         25.5890    5.8100    0.2040 N.3   206  VAL206     -0.1231
    103  CA        26.9580    5.8250   -0.3090 C.3   206  VAL206      0.1692
    104  C         27.4760    4.4050   -0.5410 C.2   206  VAL206      0.2593
    105  O         26.9830    3.4580    0.0630 O.2   206  VAL206     -0.2718
    106  CB        27.9360    6.6050    0.6480 C.3   206  VAL206      0.0266
    107  CG1       27.6040    8.0950    0.6470 C.3   206  VAL206      0.0020
    108  CG2       27.8720    6.0460    2.1080 C.3   206  VAL206      0.0020
    109  N         28.4410    4.2470   -1.4300 N.am  207  THR207     -0.1939
    110  CA        28.9870    2.9230   -1.6880 C.3   207  THR207      0.2028
    111  C         30.4900    2.9050   -1.8150 C.2   207  THR207      0.2642
    112  O         31.0800    3.8670   -2.2650 O.2   207  THR207     -0.2714
    113  CB        28.3120    2.2840   -2.9860 C.3   207  THR207      0.1808
    114  OG1       28.7150    0.9270   -3.1070 O.3   207  THR207     -0.2208
    115  CG2       28.7220    3.0130   -4.2470 C.3   207  THR207      0.0379
    116  N         31.1170    1.7800   -1.4690 N.am  208  ALA208     -0.1963
    117  CA        32.5220    1.5810   -1.7790 C.3   208  ALA208      0.1728
    118  C         32.7290    0.5920   -2.9500 C.2   208  ALA208      0.2616
    119  O         33.8580    0.4070   -3.4050 O.2   208  ALA208     -0.2715
    120  CB        33.3460    1.1490   -0.5130 C.3   208  ALA208      0.0334
    121  N         31.6530   -0.0030   -3.4680 N.am  209  THR209     -0.1951
    122  CA        31.7770   -0.7760   -4.7250 C.3   209  THR209      0.1897
    123  C         31.0740   -0.1340   -5.9150 C.2   209  THR209      0.2313
    124  O         30.2110    0.7270   -5.7620 O.2   209  THR209     -0.2863
    125  CB        31.2160   -2.1980   -4.6180 C.3   209  THR209      0.1794
    126  OG1       29.9380   -2.1430   -3.9790 O.3   209  THR209     -0.2208
    127  CG2       32.1580   -3.0880   -3.8550 C.3   209  THR209      0.0378
    128  N         23.8080   -1.3230   -5.2600 N.3   213  ILE213     -0.1245
    129  CA        23.3750   -1.8390   -3.9590 C.3   213  ILE213      0.1561
    130  C         21.8760   -1.5740   -3.8380 C.2   213  ILE213      0.2260
    131  O         21.3990   -0.4870   -4.1480 O.2   213  ILE213     -0.2867
    132  CB        24.1400   -1.2110   -2.7180 C.3   213  ILE213      0.0252
    133  CG1       25.6700   -1.1400   -2.9070 C.3   213  ILE213      0.0019
    134  CG2       23.8460   -2.0020   -1.4400 C.3   213  ILE213      0.0019
    135  CD1       26.3170   -2.4220   -3.4240 C.3   213  ILE213      0.0001
    136  N         24.7060   -7.1100    2.5780 N.3   239  TRP239     -0.1241
    137  CA        24.5030   -6.2050    1.4400 C.3   239  TRP239      0.1605
    138  C         23.9680   -6.9380    0.2070 C.2   239  TRP239      0.2264
    139  O         24.5430   -7.9290   -0.2100 O.2   239  TRP239     -0.2867
    140  CB        25.7830   -5.4610    1.0680 C.3   239  TRP239      0.0550
    141  CG        26.2460   -4.5000    2.1470 C.ar  239  TRP239      0.0003
    142  CD1       27.3560   -4.6190    2.9200 C.ar  239  TRP239      0.0946
    143  CD2       25.5890   -3.2890    2.5540 C.ar  239  TRP239      0.0152
    144  NE1       27.4440   -3.5520    3.7860 N.ar  239  TRP239     -0.2442
    145  CE2       26.3630   -2.7280    3.5910 C.ar  239  TRP239      0.0810
    146  CE3       24.4150   -2.6260    2.1350 C.ar  239  TRP239      0.0012
    147  CZ2       26.0150   -1.5340    4.2260 C.ar  239  TRP239      0.0191
    148  CZ3       24.0510   -1.4320    2.7860 C.ar  239  TRP239      0.0001
    149  CH2       24.8640   -0.9010    3.8170 C.ar  239  TRP239      0.0015
    150  N         25.4020   -6.3600   -3.6830 N.3   242  SER242     -0.1217
    151  CA        26.7750   -5.8980   -3.4670 C.3   242  SER242      0.1889
    152  C         27.8400   -6.9090   -3.8380 C.2   242  SER242      0.2288
    153  O         29.0330   -6.6230   -3.6600 O.2   242  SER242     -0.2866
    154  CB        27.0200   -5.4690   -2.0200 C.3   242  SER242      0.2089
    155  OG        28.4200   -5.2810   -1.8140 O.3   242  SER242     -0.2183
@<TRIPOS>BOND
     1   123   124    2
     2   123   122    1
     3   128   129    1
     4   122   125    1
     5   122   121    1
     6   125   126    1
     7   125   127    1
     8   115   113    1
     9   131   130    2
    10   129   130    1
    11   129   132    1
    12   152   153    2
    13   152   151    1
    14   150   151    1
    15   121   118   am
    16   151   154    1
    17   135   133    1
    18   119   118    2
    19   114   113    1
    20   113   110    1
    21   118   117    1
    22   133   132    1
    23   132   134    1
    24   112   111    2
    25   154   155    1
    26   111   110    1
    27   111   116   am
    28   117   116    1
    29   117   120    1
    30   110   109    1
    31   109   104   am
    32   104   103    1
    33   104   105    2
    34   103   102    1
    35   103   106    1
    36   139   138    2
    37    98    97    2
    38     1     2    1
    39   138   137    1
    40    51    52    1
    41    51    48    1
    42   107   106    1
    43   106   108    1
    44     6     5    1
    45   101    99    1
    46    49    48    1
    47    49    50    2
    48    97    96    1
    49     5     2    1
    50   140   137    1
    51   140   141    1
    52    48    47    1
    53     2     3    1
    54   137   136    1
    55    95    96    1
    56    99   100    1
    57    99    96    1
    58   146   143   ar
    59   146   148   ar
    60   141   143   ar
    61   141   142   ar
    62     4     3    2
    63   143   145   ar
    64   148   149   ar
    65   142   144   ar
    66    86    85    2
    67    46    44    1
    68    45    44    1
    69    72    71    2
    70   145   144   ar
    71   145   147   ar
    72    44    43    1
    73   149   147   ar
    74    85    84    1
    75    82    81    1
    76    71    70    1
    77    77    78    1
    78    78    81    1
    79    78    79    1
    80    73    70    1
    81    73    74    1
    82    43    40    1
    83    42    41    2
    84    84    83    1
    85    84    87    1
    86    90    92   ar
    87    90    88   ar
    88    70    69    1
    89    76    74    1
    90    41    40    1
    91    75    74    1
    92    79    80    2
    93    12    11    1
    94    87    88    1
    95    92    93   ar
    96    40    39    1
    97    88    89   ar
    98     7     8    1
    99    38    37   ar
   100    38    36   ar
   101    11     8    1
   102    11    13    1
   103    37    35   ar
   104    93    94    1
   105    93    91   ar
   106    67    66    2
   107     8     9    1
   108    36    34   ar
   109    89    91   ar
   110    64    63    2
   111    68    66   am
   112    35    32   ar
   113    66    65    1
   114    34    32   ar
   115    34    33   ar
   116     9    10    2
   117    24    23   ar
   118    24    22   ar
   119    32    30   ar
   120    63    62    1
   121    60    58   am
   122    59    58    2
   123    61    62    1
   124    23    21   ar
   125    33    31   ar
   126    58    57    1
   127    62    65    1
   128    30    31   ar
   129    30    29    1
   130    22    20   ar
   131    21    19   ar
   132    29    26    1
   133    28    27    2
   134    57    54    1
   135    27    26    1
   136    20    19   ar
   137    19    18    1
   138    26    25    1
   139    54    53    1
   140    54    55    1
   141    14    15    1
   142    18    15    1
   143    55    56    2
   144    15    16    1
   145    16    17    2
