@<TRIPOS>MOLECULE
tmp/2c4iA00.pdb
 158 150 0 0 0
SMALL
GASTEIGER

@<TRIPOS>ATOM
      1  N         26.8450  -10.3020   24.7170 N.3    11  TRP11      -0.1241
      2  CA        27.4870  -10.7960   25.9740 C.3    11  TRP11       0.1605
      3  C         26.5100  -10.8770   27.1660 C.2    11  TRP11       0.2264
      4  O         25.7030   -9.9590   27.3860 O.2    11  TRP11      -0.2867
      5  CB        28.7530  -10.0070   26.3230 C.3    11  TRP11       0.0550
      6  CG        29.7580  -10.0110   25.2240 C.ar   11  TRP11       0.0003
      7  CD1       30.1300   -8.9450   24.4410 C.ar   11  TRP11       0.0946
      8  CD2       30.5690  -11.1200   24.8060 C.ar   11  TRP11       0.0152
      9  NE1       31.0710   -9.3440   23.5250 N.ar   11  TRP11      -0.2442
     10  CE2       31.3770  -10.6660   23.7370 C.ar   11  TRP11       0.0810
     11  CE3       30.6640  -12.4700   25.2150 C.ar   11  TRP11       0.0012
     12  CZ2       32.2710  -11.5010   23.0670 C.ar   11  TRP11       0.0191
     13  CZ3       31.5510  -13.2980   24.5570 C.ar   11  TRP11       0.0001
     14  CH2       32.3520  -12.8000   23.4850 C.ar   11  TRP11       0.0015
     15  N         27.4240  -11.5010   30.4570 N.3    13  PHE13      -0.1227
     16  CA        28.0560  -11.3100   31.7550 C.3    13  PHE13       0.1736
     17  C         28.5540   -9.8770   31.8990 C.2    13  PHE13       0.2596
     18  O         29.2090   -9.5500   32.8910 O.2    13  PHE13      -0.2718
     19  CB        29.2130  -12.3030   31.9650 C.3    13  PHE13       0.0547
     20  CG        30.2620  -12.2740   30.8630 C.ar   13  PHE13      -0.0202
     21  CD1       31.4020  -11.5050   30.9970 C.ar   13  PHE13      -0.0042
     22  CD2       30.0940  -13.0180   29.6960 C.ar   13  PHE13      -0.0042
     23  CE1       32.3640  -11.4570   29.9980 C.ar   13  PHE13      -0.0003
     24  CE2       31.0590  -13.0010   28.6860 C.ar   13  PHE13      -0.0003
     25  CZ        32.1940  -12.2160   28.8330 C.ar   13  PHE13      -0.0000
     26  N         28.2670   -9.0500   30.8870 N.am   14  SER14      -0.1952
     27  CA        28.5690   -7.6290   30.9290 C.3    14  SER14       0.1924
     28  C         27.5850   -6.8660   30.0520 C.2    14  SER14       0.2314
     29  O         26.7370   -7.4670   29.3930 O.2    14  SER14      -0.2863
     30  CB        29.9850   -7.3670   30.4590 C.3    14  SER14       0.2116
     31  OG        30.0580   -7.6110   29.0680 O.3    14  SER14      -0.2180
     32  N         28.3150   -5.1090   27.4710 N.3    16  SER16      -0.1217
     33  CA        29.0030   -4.9020   26.1630 C.3    16  SER16       0.1889
     34  C         28.4400   -5.7020   24.9970 C.2    16  SER16       0.2288
     35  O         27.6970   -6.6460   25.2070 O.2    16  SER16      -0.2866
     36  CB        30.4550   -5.3020   26.3030 C.3    16  SER16       0.2089
     37  OG        30.5130   -6.6900   26.5880 O.3    16  SER16      -0.2183
     38  N         30.0170   -7.3210   21.0300 N.3    18  THR18      -0.1218
     39  CA        31.0800   -7.4230   20.0450 C.3    18  THR18       0.1862
     40  C         30.4950   -7.7510   18.6690 C.2    18  THR18       0.2287
     41  O         29.5900   -8.6120   18.5430 O.2    18  THR18      -0.2866
     42  CB        32.1190   -8.4750   20.4520 C.3    18  THR18       0.1770
     43  OG1       32.6330   -8.1260   21.7440 O.3    18  THR18      -0.2211
     44  CG2       33.3240   -8.5450   19.4510 C.3    18  THR18       0.0375
     45  N         31.8210   -9.1090   14.7650 N.3    20  PHE20      -0.1241
     46  CA        32.9170   -9.7520   14.1100 C.3    20  PHE20       0.1605
     47  C         32.5590   -9.7100   12.6350 C.2    20  PHE20       0.2264
     48  O         31.3960   -9.9040   12.2770 O.2    20  PHE20      -0.2867
     49  CB        32.9960  -11.2480   14.4890 C.3    20  PHE20       0.0534
     50  CG        33.6090  -11.5360   15.8430 C.ar   20  PHE20      -0.0203
     51  CD1       34.9570  -11.9080   15.9540 C.ar   20  PHE20      -0.0042
     52  CD2       32.8340  -11.4680   16.9990 C.ar   20  PHE20      -0.0042
     53  CE1       35.5220  -12.1710   17.2060 C.ar   20  PHE20      -0.0003
     54  CE2       33.3940  -11.7620   18.2640 C.ar   20  PHE20      -0.0003
     55  CZ        34.7370  -12.1100   18.3590 C.ar   20  PHE20      -0.0000
     56  N         37.1730   -7.5640   14.6870 N.3    38  TRP38      -0.1241
     57  CA        36.0420   -7.2880   15.5480 C.3    38  TRP38       0.1605
     58  C         36.1020   -5.8620   16.1240 C.2    38  TRP38       0.2264
     59  O         37.1810   -5.2520   16.1680 O.2    38  TRP38      -0.2867
     60  CB        35.9880   -8.3110   16.7130 C.3    38  TRP38       0.0550
     61  CG        37.2960   -8.5250   17.4150 C.ar   38  TRP38       0.0003
     62  CD1       38.1540   -9.5430   17.2010 C.ar   38  TRP38       0.0946
     63  CD2       37.8830   -7.7170   18.4560 C.ar   38  TRP38       0.0152
     64  NE1       39.2470   -9.4410   18.0320 N.ar   38  TRP38      -0.2442
     65  CE2       39.1060   -8.3290   18.8150 C.ar   38  TRP38       0.0810
     66  CE3       37.4880   -6.5460   19.1370 C.ar   38  TRP38       0.0012
     67  CZ2       39.9270   -7.8270   19.8400 C.ar   38  TRP38       0.0191
     68  CZ3       38.3070   -6.0520   20.1290 C.ar   38  TRP38       0.0001
     69  CH2       39.5150   -6.6610   20.4530 C.ar   38  TRP38       0.0015
     70  N         34.7190   -4.3540   19.8030 N.3    40  LEU40      -0.1245
     71  CA        34.1580   -4.5460   21.1210 C.3    40  LEU40       0.1561
     72  C         33.6690   -3.2090   21.6870 C.2    40  LEU40       0.2260
     73  O         34.4380   -2.2720   21.9470 O.2    40  LEU40      -0.2867
     74  CB        35.1740   -5.2530   22.0350 C.3    40  LEU40       0.0270
     75  CG        34.9090   -5.2910   23.5610 C.3    40  LEU40       0.0019
     76  CD1       33.5880   -5.9530   23.9030 C.3    40  LEU40       0.0001
     77  CD2       36.0560   -5.9620   24.3080 C.3    40  LEU40       0.0001
     78  N         32.0180   -1.2720   24.5880 N.3    42  SER42      -0.1217
     79  CA        31.7350   -1.2100   26.0050 C.3    42  SER42       0.1889
     80  C         30.5960   -0.2260   26.2650 C.2    42  SER42       0.2288
     81  O         30.3860    0.7550   25.5260 O.2    42  SER42      -0.2866
     82  CB        32.9950   -0.7700   26.7280 C.3    42  SER42       0.2089
     83  OG        33.9550   -1.8080   26.7100 O.3    42  SER42      -0.2183
     84  N         40.6100  -11.8940   14.9860 N.3    59  ASN59      -0.1240
     85  CA        40.6920  -13.2700   15.4640 C.3    59  ASN59       0.1653
     86  C         40.7870  -14.1570   14.2560 C.2    59  ASN59       0.2266
     87  O         40.1060  -13.9120   13.2550 O.2    59  ASN59      -0.2867
     88  CB        39.4640  -13.6610   16.3000 C.3    59  ASN59       0.1155
     89  CG        39.5930  -13.2430   17.7570 C.2    59  ASN59       0.2627
     90  OD1       38.7070  -12.5860   18.3010 O.2    59  ASN59      -0.2716
     91  ND2       40.7050  -13.6330   18.3960 N.am   59  ASN59      -0.0877
     92  N         39.4890  -19.9770   18.3610 N.3    74  ASN74      -0.1240
     93  CA        40.3220  -18.9320   17.8290 C.3    74  ASN74       0.1653
     94  C         41.6550  -18.8650   18.5320 C.2    74  ASN74       0.2266
     95  O         41.9150  -19.6250   19.4660 O.2    74  ASN74      -0.2867
     96  CB        39.6080  -17.5740   17.7420 C.3    74  ASN74       0.1155
     97  CG        39.3670  -16.9140   19.0990 C.2    74  ASN74       0.2627
     98  OD1       40.0850  -17.1330   20.0910 O.2    74  ASN74      -0.2716
     99  ND2       38.3630  -16.0970   19.1340 N.am   74  ASN74      -0.0877
    100  N         42.8590  -16.7840   20.6040 N.3    76  LEU76      -0.1245
    101  CA        42.8690  -16.4440   22.0210 C.3    76  LEU76       0.1561
    102  C         42.3670  -17.6230   22.8900 C.2    76  LEU76       0.2260
    103  O         42.2580  -17.4770   24.1150 O.2    76  LEU76      -0.2867
    104  CB        41.9570  -15.2270   22.2640 C.3    76  LEU76       0.0270
    105  CG        42.3950  -13.9300   21.5430 C.3    76  LEU76       0.0019
    106  CD1       41.4880  -12.8150   21.8710 C.3    76  LEU76       0.0001
    107  CD2       43.8510  -13.5590   21.9160 C.3    76  LEU76       0.0001
    108  N         39.2460  -18.9110   22.5070 N.3    78  SER78      -0.1217
    109  CA        37.7690  -18.8790   22.5510 C.3    78  SER78       0.1889
    110  C         37.1450  -19.9460   21.6580 C.2    78  SER78       0.2288
    111  O         37.7680  -20.4250   20.7090 O.2    78  SER78      -0.2866
    112  CB        37.2320  -17.5010   22.1850 C.3    78  SER78       0.2089
    113  OG        37.8190  -16.5320   23.0230 O.3    78  SER78      -0.2183
    114  N         28.8640  -18.4120   21.9270 N.3    95  TYR95      -0.1241
    115  CA        30.2780  -18.0770   22.0070 C.3    95  TYR95       0.1605
    116  C         30.7350  -18.1990   23.4400 C.2    95  TYR95       0.2264
    117  O         30.1030  -17.6590   24.3530 O.2    95  TYR95      -0.2867
    118  CB        30.4600  -16.6180   21.5190 C.3    95  TYR95       0.0534
    119  CG        31.8460  -16.2340   21.0540 C.ar   95  TYR95      -0.0201
    120  CD1       32.1170  -16.1200   19.6880 C.ar   95  TYR95      -0.0009
    121  CD2       32.8640  -15.9250   21.9610 C.ar   95  TYR95      -0.0009
    122  CE1       33.3470  -15.7410   19.2380 C.ar   95  TYR95       0.0417
    123  CE2       34.1540  -15.5590   21.5060 C.ar   95  TYR95       0.0417
    124  CZ        34.3680  -15.4720   20.1410 C.ar   95  TYR95       0.1957
    125  OH        35.5780  -15.0790   19.6390 O.3    95  TYR95      -0.2866
    126  N         34.0470  -16.9920   25.3580 N.3    97  THR97      -0.1218
    127  CA        35.2980  -16.2870   25.2200 C.3    97  THR97       0.1862
    128  C         36.2750  -16.8340   26.2580 C.2    97  THR97       0.2287
    129  O         35.8580  -17.2020   27.3700 O.2    97  THR97      -0.2866
    130  CB        35.1270  -14.7390   25.3220 C.3    97  THR97       0.1770
    131  OG1       36.4090  -14.0940   25.2430 O.3    97  THR97      -0.2211
    132  CG2       34.4600  -14.3260   26.6900 C.3    97  THR97       0.0375
    133  N         38.7030  -14.9250   27.2350 N.3    99  VAL99      -0.1231
    134  CA        39.3390  -13.7180   27.7550 C.3    99  VAL99       0.1692
    135  C         38.2750  -12.6360   27.8950 C.2    99  VAL99       0.2593
    136  O         37.2170  -12.7130   27.2770 O.2    99  VAL99      -0.2718
    137  CB        40.4720  -13.2280   26.8370 C.3    99  VAL99       0.0266
    138  CG1       41.6480  -14.1890   26.8630 C.3    99  VAL99       0.0020
    139  CG2       39.9540  -13.0560   25.3660 C.3    99  VAL99       0.0020
    140  N         38.5360  -11.6420   28.7340 N.am  100  THR100     -0.1939
    141  CA        37.5320  -10.5880   28.9730 C.3   100  THR100      0.2028
    142  C         38.2470   -9.2750   29.2020 C.2   100  THR100      0.2642
    143  O         39.4250   -9.2740   29.5950 O.2   100  THR100     -0.2714
    144  CB        36.6150  -10.9310   30.2060 C.3   100  THR100      0.1808
    145  OG1       35.5440   -9.9980   30.2570 O.3   100  THR100     -0.2208
    146  CG2       37.3720  -10.8530   31.5260 C.3   100  THR100      0.0379
    147  N         37.5580   -8.1730   28.8890 N.am  101  ALA101     -0.1963
    148  CA        38.0230   -6.8250   29.1870 C.3   101  ALA101      0.1728
    149  C         37.3230   -6.2630   30.4240 C.2   101  ALA101      0.2616
    150  O         37.7540   -5.2450   30.9740 O.2   101  ALA101     -0.2715
    151  CB        37.7860   -5.8960   27.9910 C.3   101  ALA101      0.0334
    152  N         36.2480   -6.9080   30.8550 N.am  102  THR102     -0.1951
    153  CA        35.5700   -6.5080   32.1050 C.3   102  THR102      0.1897
    154  C         35.7970   -7.4810   33.2400 C.2   102  THR102      0.2313
    155  O         36.0390   -8.6670   33.0360 O.2   102  THR102     -0.2863
    156  CB        34.0690   -6.3500   31.9460 C.3   102  THR102      0.1794
    157  OG1       33.5180   -7.5870   31.4910 O.3   102  THR102     -0.2208
    158  CG2       33.7300   -5.2000   30.9510 C.3   102  THR102      0.0378
@<TRIPOS>BOND
     1    48    47    2
     2    47    46    1
     3    87    86    2
     4    46    49    1
     5    46    45    1
     6    86    85    1
     7    49    50    1
     8    56    57    1
     9    84    85    1
    10    85    88    1
    11    57    58    1
    12    57    60    1
    13    50    51   ar
    14    50    52   ar
    15    51    53   ar
    16    58    59    2
    17    88    89    1
    18    60    61    1
    19    52    54   ar
    20    62    61   ar
    21    62    64   ar
    22    53    55   ar
    23    61    63   ar
    24    96    93    1
    25    96    97    1
    26    89    90    2
    27    89    91   am
    28    93    92    1
    29    93    94    1
    30    64    65   ar
    31    54    55   ar
    32    63    65   ar
    33    63    66   ar
    34    94    95    2
    35    41    40    2
    36    40    39    1
    37    65    67   ar
    38    97    99   am
    39    97    98    2
    40    66    68   ar
    41   122   120   ar
    42   122   124   ar
    43    44    42    1
    44   125   124    1
    45   120   119   ar
    46    70    71    1
    47    67    69   ar
    48    39    42    1
    49    39    38    1
    50    68    69   ar
    51   124   123   ar
    52    42    43    1
    53   100   101    1
    54   111   110    2
    55   119   118    1
    56   119   121   ar
    57    71    72    1
    58    71    74    1
    59   123   121   ar
    60   118   115    1
    61   105   106    1
    62   105   107    1
    63   105   104    1
    64   110   109    1
    65    72    73    2
    66   114   115    1
    67   115   116    1
    68   101   104    1
    69   101   102    1
    70    74    75    1
    71   112   109    1
    72   112   113    1
    73   108   109    1
    74   102   103    2
    75    12    14   ar
    76    12    10   ar
    77   116   117    2
    78    14    13   ar
    79     9    10   ar
    80     9     7   ar
    81    75    76    1
    82    75    77    1
    83    10     8   ar
    84     7     6   ar
    85    13    11   ar
    86    78    79    1
    87     1     2    1
    88     8    11   ar
    89     8     6   ar
    90    34    35    2
    91    34    33    1
    92   127   130    1
    93   127   126    1
    94   127   128    1
    95     6     5    1
    96   131   130    1
    97   130   132    1
    98   139   137    1
    99    81    80    2
   100     2     5    1
   101     2     3    1
   102    79    80    1
   103    79    82    1
   104    33    36    1
   105    33    32    1
   106   128   129    2
   107    36    37    1
   108    83    82    1
   109   137   138    1
   110   137   134    1
   111     3     4    2
   112   133   134    1
   113   136   135    2
   114   134   135    1
   115   135   140   am
   116   151   148    1
   117    24    25   ar
   118    24    22   ar
   119   140   141    1
   120    25    23   ar
   121   147   148    1
   122   147   142   am
   123   141   142    1
   124   141   144    1
   125    31    30    1
   126   148   149    1
   127   142   143    2
   128    29    28    2
   129    22    20   ar
   130    23    21   ar
   131    28    27    1
   132   144   145    1
   133   144   146    1
   134   149   152   am
   135   149   150    2
   136    15    16    1
   137    30    27    1
   138   152   153    1
   139    20    21   ar
   140    20    19    1
   141    26    27    1
   142    26    17   am
   143   158   156    1
   144   157   156    1
   145    16    17    1
   146    16    19    1
   147    17    18    2
   148   156   153    1
   149   153   154    1
   150   155   154    2
