@<TRIPOS>MOLECULE
tmp/2c4jC00.pdb
 191 186 0 0 0
SMALL
GASTEIGER

@<TRIPOS>ATOM
      1  N         12.1980    6.8050   24.3930 N.3     6  TYR6       -0.1227
      2  CA        12.7130    7.3820   25.6350 C.3     6  TYR6        0.1736
      3  C         13.4670    8.6780   25.3560 C.2     6  TYR6        0.2595
      4  O         13.7530    8.9810   24.1990 O.2     6  TYR6       -0.2718
      5  CB        13.6240    6.3820   26.3670 C.3     6  TYR6        0.0548
      6  CG        13.9090    6.7580   27.8080 C.ar    6  TYR6       -0.0200
      7  CD1       12.8700    6.9210   28.7310 C.ar    6  TYR6       -0.0009
      8  CD2       15.2110    6.9540   28.2520 C.ar    6  TYR6       -0.0009
      9  CE1       13.1210    7.2660   30.0480 C.ar    6  TYR6        0.0417
     10  CE2       15.4790    7.2960   29.5720 C.ar    6  TYR6        0.0417
     11  CZ        14.4300    7.4540   30.4700 C.ar    6  TYR6        0.1957
     12  OH        14.7070    7.8020   31.7670 O.3     6  TYR6       -0.2866
     13  N         13.7620    9.4380   26.4100 N.am    7  TRP7       -0.1976
     14  CA        14.6720   10.5770   26.3160 C.3     7  TRP7        0.1640
     15  C         16.0310   10.0850   25.8150 C.2     7  TRP7        0.2290
     16  O         16.3670    8.9100   25.9470 O.2     7  TRP7       -0.2864
     17  CB        14.8190   11.2750   27.6720 C.3     7  TRP7        0.0576
     18  CG        13.5300   11.8230   28.2170 C.ar    7  TRP7        0.0006
     19  CD1       12.8440   11.3630   29.3050 C.ar    7  TRP7        0.0946
     20  CD2       12.7690   12.9220   27.6950 C.ar    7  TRP7        0.0152
     21  NE1       11.7110   12.1150   29.5010 N.ar    7  TRP7       -0.2442
     22  CE2       11.6350   13.0760   28.5250 C.ar    7  TRP7        0.0810
     23  CE3       12.9420   13.8020   26.6120 C.ar    7  TRP7        0.0012
     24  CZ2       10.6710   14.0680   28.3050 C.ar    7  TRP7        0.0191
     25  CZ3       11.9860   14.7800   26.3880 C.ar    7  TRP7        0.0001
     26  CH2       10.8620   14.9060   27.2300 C.ar    7  TRP7        0.0015
     27  N         18.8600    9.8110   26.8800 N.3     9  ILE9       -0.1245
     28  CA        19.6800    9.6560   28.0790 C.3     9  ILE9        0.1561
     29  C         19.6940    8.1850   28.5000 C.2     9  ILE9        0.2260
     30  O         18.9480    7.3660   27.9560 O.2     9  ILE9       -0.2867
     31  CB        19.1550   10.5190   29.2730 C.3     9  ILE9        0.0252
     32  CG1       17.7890    9.9970   29.7720 C.3     9  ILE9        0.0019
     33  CG2       19.0680   11.9930   28.8910 C.3     9  ILE9        0.0019
     34  CD1       17.1580   10.8180   30.8830 C.3     9  ILE9        0.0001
     35  N         19.1200    6.9290   31.9840 N.3    11  GLY11      -0.1210
     36  CA        17.8820    6.9010   32.7750 C.3    11  GLY11       0.1956
     37  C         17.2670    5.5250   32.9230 C.2    11  GLY11       0.2611
     38  O         17.9640    4.5430   33.1820 O.2    11  GLY11      -0.2717
     39  N         15.9510    5.4670   32.7220 N.am   12  LEU12      -0.1979
     40  CA        15.1660    4.2510   32.9240 C.3    12  LEU12       0.1596
     41  C         15.1840    3.2640   31.7630 C.2    12  LEU12       0.2287
     42  O         14.6220    2.1720   31.8680 O.2    12  LEU12      -0.2864
     43  CB        13.7070    4.6150   33.2180 C.3    12  LEU12       0.0297
     44  CG        13.3740    5.2900   34.5470 C.3    12  LEU12       0.0022
     45  CD1       11.8710    5.4850   34.6330 C.3    12  LEU12       0.0001
     46  CD2       13.8670    4.4590   35.7060 C.3    12  LEU12       0.0001
     47  N         15.0960   16.9020   25.3650 N.3    34  MET34      -0.1245
     48  CA        14.5340   17.9500   26.1980 C.3    34  MET34       0.1570
     49  C         15.3270   19.2440   25.9980 C.2    34  MET34       0.2261
     50  O         16.5030   19.1970   25.6600 O.2    34  MET34      -0.2867
     51  CB        14.6360   17.4930   27.6490 C.3    34  MET34       0.0387
     52  CG        13.9670   18.3730   28.6790 C.3    34  MET34       0.0595
     53  SD        14.2760   17.6950   30.3160 S.3    34  MET34      -0.1393
     54  CE        13.2380   16.2260   30.2820 C.3    34  MET34       0.0692
     55  N          9.6400   20.2220   26.5430 N.3    42  ARG42      -0.1245
     56  CA         9.4070   18.7940   26.3200 C.3    42  ARG42       0.1563
     57  C          8.5730   18.5300   25.0660 C.2    42  ARG42       0.2260
     58  O          8.0200   17.4370   24.9050 O.2    42  ARG42      -0.2867
     59  CB         8.7080   18.1800   27.5380 C.3    42  ARG42       0.0307
     60  CG         9.5080   18.2290   28.8330 C.3    42  ARG42       0.0489
     61  CD         8.8060   17.4500   29.9350 C.3    42  ARG42       0.2205
     62  NE         7.4500   17.9380   30.1950 N.pl3  42  ARG42      -0.0865
     63  CZ         6.3940   17.1560   30.4250 C.cat  42  ARG42       0.5346
     64  NH1        6.5160   15.8300   30.4120 N.pl3  42  ARG42       0.1354
     65  NH2        5.2040   17.7020   30.6520 N.pl3  42  ARG42       0.1354
     66  N          8.4250   15.3200   22.7960 N.3    45  TRP45      -0.1241
     67  CA         7.6180   14.2480   23.3860 C.3    45  TRP45       0.1605
     68  C          6.1350   14.5970   23.4510 C.2    45  TRP45       0.2264
     69  O          5.2900   13.7980   23.0390 O.2    45  TRP45      -0.2867
     70  CB         8.1610   13.9260   24.7730 C.3    45  TRP45       0.0550
     71  CG         7.2390   13.1670   25.7060 C.ar   45  TRP45       0.0003
     72  CD1        6.8950   13.5370   26.9680 C.ar   45  TRP45       0.0946
     73  CD2        6.5930   11.9020   25.4690 C.ar   45  TRP45       0.0152
     74  NE1        6.0740   12.5980   27.5380 N.ar   45  TRP45      -0.2442
     75  CE2        5.8660   11.5860   26.6390 C.ar   45  TRP45       0.0810
     76  CE3        6.5460   11.0180   24.3840 C.ar   45  TRP45       0.0012
     77  CZ2        5.1080   10.4160   26.7610 C.ar   45  TRP45       0.0191
     78  CZ3        5.7870    9.8520   24.5060 C.ar   45  TRP45       0.0001
     79  CH2        5.0780    9.5680   25.6890 C.ar   45  TRP45       0.0015
     80  N          2.8160   12.4260   22.5510 N.3    49  LYS49      -0.1245
     81  CA         2.4450   11.7110   23.7890 C.3    49  LYS49       0.1561
     82  C          1.1240   10.9410   23.7420 C.2    49  LYS49       0.2260
     83  O          1.0670    9.7880   24.1910 O.2    49  LYS49      -0.2867
     84  CB         2.4570   12.6800   24.9750 C.3    49  LYS49       0.0271
     85  CG         2.0570   12.0560   26.3220 C.3    49  LYS49       0.0035
     86  CD         2.3540   12.9930   27.4710 C.3    49  LYS49       0.0206
     87  CE         1.8870   12.4020   28.7990 C.3    49  LYS49       0.1093
     88  NZ         2.3180   13.2540   29.9530 N.3    49  LYS49      -0.1314
     89  N          0.1480    7.2260   28.8680 N.3    57  PRO57      -0.2102
     90  CA         1.3300    7.6690   28.1290 C.3    57  PRO57       0.1504
     91  C          2.4900    8.0540   29.0360 C.2    57  PRO57       0.2576
     92  O          2.3090    8.7570   30.0170 O.2    57  PRO57      -0.2718
     93  CB         0.8240    8.8800   27.3520 C.3    57  PRO57       0.0282
     94  CG        -0.6180    8.6190   27.1490 C.3    57  PRO57       0.0208
     95  CD        -1.0730    7.9250   28.4240 C.3    57  PRO57       0.0893
     96  N          3.6780    7.5880   28.6840 N.am   58  ASN58      -0.1961
     97  CA         4.8410    7.7240   29.5520 C.3    58  ASN58       0.1819
     98  C          6.0950    7.3730   28.7790 C.2    58  ASN58       0.2621
     99  O          6.0190    6.8080   27.6710 O.2    58  ASN58      -0.2715
    100  CB         4.6930    6.7780   30.7400 C.3    58  ASN58       0.1195
    101  CG         5.2440    7.3510   32.0280 C.2    58  ASN58       0.2630
    102  OD1        6.0890    8.2680   32.0320 O.2    58  ASN58      -0.2716
    103  ND2        4.7490    6.8130   33.1480 N.am   58  ASN58      -0.0877
    104  N          7.2390    7.7010   29.3810 N.am   59  LEU59      -0.1964
    105  CA         8.5530    7.3360   28.8610 C.3    59  LEU59       0.1713
    106  C          9.2810    6.5950   29.9710 C.2    59  LEU59       0.2458
    107  O          9.3140    7.0690   31.1020 O.2    59  LEU59      -0.2730
    108  CB         9.3440    8.5910   28.4790 C.3    59  LEU59       0.0310
    109  CG         8.8320    9.3400   27.2490 C.3    59  LEU59       0.0022
    110  CD1        9.5030   10.7100   27.1330 C.3    59  LEU59       0.0001
    111  CD2        9.0260    8.5300   25.9580 C.3    59  LEU59       0.0001
    112  N          9.8590    5.4230   29.6640 N.am   60  PRO60      -0.2727
    113  CA         9.9160    4.7790   28.3490 C.3    60  PRO60       0.1402
    114  C          8.6160    4.1180   27.9230 C.2    60  PRO60       0.2269
    115  O          7.7620    3.7950   28.7740 O.2    60  PRO60      -0.2865
    116  CB        10.9610    3.6810   28.5480 C.3    60  PRO60       0.0296
    117  CG        10.8290    3.3030   30.0100 C.3    60  PRO60       0.0237
    118  CD        10.5410    4.6270   30.7010 C.3    60  PRO60       0.0939
    119  N          5.7590    1.8480   31.5630 N.3    71  GLN71      -0.1231
    120  CA         6.3220    1.3870   32.8340 C.3    71  GLN71       0.1698
    121  C          7.5370    0.4940   32.6000 C.2    71  GLN71       0.2593
    122  O          7.4250   -0.6160   32.0770 O.2    71  GLN71      -0.2718
    123  CB         5.2640    0.7240   33.7420 C.3    71  GLN71       0.0381
    124  CG         4.2480    1.7280   34.2840 C.3    71  GLN71       0.0905
    125  CD         4.8500    2.6850   35.2980 C.2    71  GLN71       0.2608
    126  OE1        5.9300    2.4440   35.8250 O.2    71  GLN71      -0.2717
    127  NE2        4.1390    3.7650   35.5760 N.am   71  GLN71      -0.0878
    128  N          8.7080    1.0040   32.9640 N.am   72  SER72      -0.1938
    129  CA         9.9520    0.3010   32.7030 C.3    72  SER72       0.2055
    130  C          9.9150   -1.1610   33.1530 C.2    72  SER72       0.2643
    131  O         10.3280   -2.0520   32.4080 O.2    72  SER72      -0.2714
    132  CB        11.1270    1.0530   33.3140 C.3    72  SER72       0.2130
    133  OG        11.0170    1.1440   34.7180 O.3    72  SER72      -0.2179
    134  N          9.3730   -1.4330   34.3370 N.am   73  ASN73      -0.1971
    135  CA         9.3130   -2.8280   34.8030 C.3    73  ASN73       0.1688
    136  C          8.4090   -3.7080   33.9450 C.2    73  ASN73       0.2292
    137  O          8.6970   -4.9020   33.7610 O.2    73  ASN73      -0.2864
    138  CB         8.8530   -2.9170   36.2640 C.3    73  ASN73       0.1181
    139  CG         9.9110   -2.4630   37.2560 C.2    73  ASN73       0.2629
    140  OD1       11.1190   -2.6120   37.0480 O.2    73  ASN73      -0.2716
    141  ND2        9.4430   -1.9170   38.3840 N.am   73  ASN73      -0.0877
    142  N         14.2820   -0.9770   42.5220 N.3   104  MET104     -0.1245
    143  CA        13.5900    0.2720   42.1980 C.3   104  MET104      0.1570
    144  C         13.6910    1.2800   43.3400 C.2   104  MET104      0.2261
    145  O         13.8750    2.4650   43.0990 O.2   104  MET104     -0.2867
    146  CB        12.1290    0.0440   41.7900 C.3   104  MET104      0.0387
    147  CG        11.4280    1.3320   41.3550 C.3   104  MET104      0.0595
    148  SD        12.0800    2.1510   39.8620 S.3   104  MET104     -0.1393
    149  CE        11.4740    1.0660   38.5690 C.3   104  MET104      0.0692
    150  N         18.1690    8.7100   42.2480 N.3   111  ALA111     -0.1245
    151  CA        17.4670    9.6880   41.4170 C.3   111  ALA111      0.1562
    152  C         16.9990   10.8940   42.2280 C.2   111  ALA111      0.2260
    153  O         17.2530   12.0370   41.8310 O.2   111  ALA111     -0.2867
    154  CB        16.2870    9.0310   40.6840 C.3   111  ALA111      0.0290
    155  N         18.3980   14.7850   41.5330 N.3   115  TYR115     -0.1241
    156  CA        17.4780   15.7960   41.0050 C.3   115  TYR115      0.1605
    157  C         17.2050   16.9290   42.0030 C.2   115  TYR115      0.2264
    158  O         16.5580   17.9230   41.6600 O.2   115  TYR115     -0.2867
    159  CB        16.1580   15.1540   40.5440 C.3   115  TYR115      0.0534
    160  CG        16.2080   14.5330   39.1590 C.ar  115  TYR115     -0.0201
    161  CD1       15.8710   15.2740   38.0220 C.ar  115  TYR115     -0.0009
    162  CD2       16.5840   13.2050   38.9890 C.ar  115  TYR115     -0.0009
    163  CE1       15.9210   14.7000   36.7460 C.ar  115  TYR115      0.0417
    164  CE2       16.6300   12.6200   37.7250 C.ar  115  TYR115      0.0417
    165  CZ        16.3020   13.3690   36.6100 C.ar  115  TYR115      0.1957
    166  OH        16.3600   12.7730   35.3680 O.3   115  TYR115     -0.2866
    167  N         21.1950   11.0070   33.8480 N.3   208  PHE208     -0.1227
    168  CA        19.8600   11.5420   34.1040 C.3   208  PHE208      0.1736
    169  C         19.4710   12.6220   33.0900 C.2   208  PHE208      0.2596
    170  O         20.2250   12.9130   32.1560 O.2   208  PHE208     -0.2718
    171  CB        19.7620   12.0890   35.5290 C.3   208  PHE208      0.0547
    172  CG        19.9360   11.0430   36.5950 C.ar  208  PHE208     -0.0202
    173  CD1       18.9800   10.0450   36.7610 C.ar  208  PHE208     -0.0042
    174  CD2       21.0420   11.0620   37.4410 C.ar  208  PHE208     -0.0042
    175  CE1       19.1260    9.0740   37.7440 C.ar  208  PHE208     -0.0003
    176  CE2       21.1990   10.0900   38.4300 C.ar  208  PHE208     -0.0003
    177  CZ        20.2310    9.0930   38.5810 C.ar  208  PHE208     -0.0000
    178  N         18.2920   13.2090   33.2720 N.am  209  SER209     -0.1952
    179  CA        17.7780   14.2120   32.3380 C.3   209  SER209      0.1924
    180  C         18.3800   15.5880   32.5940 C.2   209  SER209      0.2314
    181  O         19.1470   15.7700   33.5400 O.2   209  SER209     -0.2863
    182  CB        16.2440   14.2730   32.3850 C.3   209  SER209      0.2116
    183  OG        15.7820   15.0080   33.5110 O.3   209  SER209     -0.2180
    184  N         17.1740   18.2760   33.7590 N.3   211  MET211     -0.1245
    185  CA        16.7370   18.9000   35.0090 C.3   211  MET211      0.1570
    186  C         17.5650   18.4630   36.2210 C.2   211  MET211      0.2261
    187  O         17.4600   19.0620   37.2980 O.2   211  MET211     -0.2867
    188  CB        15.2630   18.5750   35.2650 C.3   211  MET211      0.0387
    189  CG        14.2730   19.4470   34.5100 C.3   211  MET211      0.0595
    190  SD        12.5980   18.7640   34.5040 S.3   211  MET211     -0.1393
    191  CE        12.2340   18.6220   36.2540 C.3   211  MET211      0.0692
@<TRIPOS>BOND
     1    80    81    1
     2    66    67    1
     3    69    68    2
     4    67    68    1
     5    67    70    1
     6    82    81    1
     7    82    83    2
     8    81    84    1
     9     4     3    2
    10    76    78   ar
    11    76    73   ar
    12     1     2    1
    13    78    79   ar
    14    70    71    1
    15    58    57    2
    16    84    85    1
    17    57    56    1
    18     3     2    1
    19     3    13   am
    20    47    48    1
    21    73    71   ar
    22    73    75   ar
    23     2     5    1
    24    50    49    2
    25    79    77   ar
    26    71    72   ar
    27    15    16    2
    28    15    14    1
    29   111   109    1
    30    49    48    1
    31    48    51    1
    32    14    13    1
    33    14    17    1
    34    56    55    1
    35    56    59    1
    36    85    86    1
    37     5     6    1
    38    25    23   ar
    39    25    26   ar
    40    23    20   ar
    41    75    77   ar
    42    75    74   ar
    43    27    28    1
    44    72    74   ar
    45   110   109    1
    46    94    93    1
    47    94    95    1
    48    26    24   ar
    49   109   108    1
    50    93    90    1
    51    86    87    1
    52    59    60    1
    53    51    52    1
    54    99    98    2
    55    17    18    1
    56    20    18   ar
    57    20    22   ar
    58     6     8   ar
    59     6     7   ar
    60   114   113    1
    61   114   115    2
    62    30    29    2
    63    28    29    1
    64    28    31    1
    65    90    89    1
    66    90    91    1
    67    18    19   ar
    68     8    10   ar
    69    24    22   ar
    70   113   116    1
    71   113   112    1
    72    95    89    1
    73   108   105    1
    74    22    21   ar
    75   116   117    1
    76    52    53    1
    77    96    91   am
    78    96    97    1
    79     7     9   ar
    80    98   104   am
    81    98    97    1
    82    87    88    1
    83    60    61    1
    84   105   104    1
    85   105   106    1
    86    33    31    1
    87    91    92    2
    88    31    32    1
    89    19    21   ar
    90    97   100    1
    91    10    11   ar
    92   112   106   am
    93   112   118    1
    94    32    34    1
    95    61    62    1
    96   106   107    2
    97   117   118    1
    98     9    11   ar
    99    62    63    2
   100    54    53    1
   101    64    63    1
   102    63    65    1
   103    11    12    1
   104   100   101    1
   105   119   120    1
   106    41    42    2
   107    41    40    1
   108    35    36    1
   109   101   102    2
   110   101   103   am
   111   122   121    2
   112   170   169    2
   113   179   182    1
   114   179   180    1
   115   179   178    1
   116   182   183    1
   117   131   130    2
   118   180   181    2
   119   121   120    1
   120   121   128   am
   121   129   128    1
   122   129   130    1
   123   129   132    1
   124    39    37   am
   125    39    40    1
   126    36    37    1
   127   120   123    1
   128    37    38    2
   129    40    43    1
   130   169   178   am
   131   169   168    1
   132   130   134   am
   133    43    44    1
   134   132   133    1
   135   123   124    1
   136   184   185    1
   137   137   136    2
   138   167   168    1
   139   136   135    1
   140   168   171    1
   141   124   125    1
   142   134   135    1
   143   190   189    1
   144   190   191    1
   145   189   188    1
   146    44    45    1
   147    44    46    1
   148   135   138    1
   149   185   188    1
   150   185   186    1
   151   125   127   am
   152   125   126    2
   153   166   165    1
   154   171   172    1
   155   186   187    2
   156   138   139    1
   157   172   173   ar
   158   172   174   ar
   159   165   163   ar
   160   165   164   ar
   161   163   161   ar
   162   173   175   ar
   163   140   139    2
   164   139   141   am
   165   174   176   ar
   166   164   162   ar
   167   175   177   ar
   168   161   160   ar
   169   176   177   ar
   170   149   148    1
   171   162   160   ar
   172   160   159    1
   173   148   147    1
   174   159   156    1
   175   154   151    1
   176   156   155    1
   177   156   157    1
   178   147   146    1
   179   151   152    1
   180   151   150    1
   181   158   157    2
   182   146   143    1
   183   153   152    2
   184   143   142    1
   185   143   144    1
   186   145   144    2
