@<TRIPOS>MOLECULE
tmp/2c4mC00.pdb
 152 145 0 0 0
SMALL
GASTEIGER

@<TRIPOS>ATOM
      1  N        -79.6760   37.5790   78.3560 N.3    65  LEU65      -0.1245
      2  CA       -81.1380   37.4740   78.4070 C.3    65  LEU65       0.1561
      3  C        -81.4390   35.9970   78.6350 C.2    65  LEU65       0.2260
      4  O        -81.7570   35.2480   77.7080 O.2    65  LEU65      -0.2867
      5  CB       -81.7520   37.9700   77.0940 C.3    65  LEU65       0.0270
      6  CG       -83.2250   38.3640   77.1840 C.3    65  LEU65       0.0019
      7  CD1      -83.3670   39.4920   78.1930 C.3    65  LEU65       0.0001
      8  CD2      -83.7380   38.8070   75.8330 C.3    65  LEU65       0.0001
      9  N        -81.1060   42.8030   77.9460 N.3   108  ASN108     -0.1225
     10  CA       -81.9960   43.7210   77.2560 C.3   108  ASN108      0.1785
     11  C        -82.5760   43.1180   75.9810 C.2   108  ASN108      0.2598
     12  O        -83.7700   42.8090   75.9190 O.2   108  ASN108     -0.2718
     13  CB       -81.2300   44.9990   76.9170 C.3   108  ASN108      0.1169
     14  CG       -82.1070   46.0550   76.2860 C.2   108  ASN108      0.2627
     15  OD1      -83.2770   45.8150   75.9710 O.2   108  ASN108     -0.2716
     16  ND2      -81.5430   47.2430   76.0970 N.am  108  ASN108     -0.0877
     17  N        -81.7340   42.9450   74.9620 N.am  109  GLY109     -0.1942
     18  CA       -82.2200   42.3980   73.7030 C.3   109  GLY109      0.2014
     19  C        -81.3290   41.3670   73.0330 C.2   109  GLY109      0.2639
     20  O        -80.8030   40.4630   73.6840 O.2   109  GLY109     -0.2714
     21  N        -81.1530   41.5170   71.7230 N.am  110  GLY110     -0.1954
     22  CA       -80.3490   40.5820   70.9540 C.3   110  GLY110      0.1869
     23  C        -78.9390   40.3310   71.4540 C.2   110  GLY110      0.2309
     24  O        -78.4770   39.1920   71.4500 O.2   110  GLY110     -0.2863
     25  N        -79.2760   38.0620   74.3610 N.3   113  ARG113     -0.1245
     26  CA       -79.8300   36.7540   74.0480 C.3   113  ARG113      0.1563
     27  C        -78.7760   35.9280   73.3240 C.2   113  ARG113      0.2260
     28  O        -78.7100   34.7040   73.4910 O.2   113  ARG113     -0.2867
     29  CB       -81.1030   36.8750   73.2030 C.3   113  ARG113      0.0307
     30  CG       -81.7820   35.5270   72.9420 C.3   113  ARG113      0.0489
     31  CD       -82.0520   34.7580   74.2420 C.3   113  ARG113      0.2205
     32  NE       -81.5010   33.4020   74.1830 N.pl3 113  ARG113     -0.0865
     33  CZ       -81.6300   32.4860   75.1390 C.cat 113  ARG113      0.5346
     34  NH1      -82.2950   32.7610   76.2580 N.pl3 113  ARG113      0.1354
     35  NH2      -81.0940   31.2830   74.9720 N.pl3 113  ARG113      0.1354
     36  N        -85.1880   27.3150   71.7590 N.3   440  TRP440     -0.1241
     37  CA       -85.9840   27.8330   70.6490 C.3   440  TRP440      0.1605
     38  C        -86.7090   26.8690   69.7100 C.2   440  TRP440      0.2264
     39  O        -87.3390   27.3110   68.7470 O.2   440  TRP440     -0.2867
     40  CB       -85.1190   28.8200   69.8550 C.3   440  TRP440      0.0550
     41  CG       -84.6870   29.9660   70.7460 C.ar  440  TRP440      0.0003
     42  CD1      -83.4100   30.2870   71.1330 C.ar  440  TRP440      0.0946
     43  CD2      -85.5520   30.8710   71.4330 C.ar  440  TRP440      0.0152
     44  NE1      -83.4330   31.3350   72.0290 N.ar  440  TRP440     -0.2442
     45  CE2      -84.7350   31.7130   72.2310 C.ar  440  TRP440      0.0810
     46  CE3      -86.9420   31.0530   71.4570 C.ar  440  TRP440      0.0012
     47  CZ2      -85.2690   32.7230   73.0450 C.ar  440  TRP440      0.0191
     48  CZ3      -87.4690   32.0480   72.2590 C.ar  440  TRP440      0.0001
     49  CH2      -86.6330   32.8740   73.0460 C.ar  440  TRP440      0.0015
     50  N        -92.0860   40.9260   66.4520 N.3   517  ILE517     -0.1231
     51  CA       -91.6050   41.0470   67.8110 C.3   517  ILE517      0.1692
     52  C        -90.1480   41.4960   67.8220 C.2   517  ILE517      0.2592
     53  O        -89.2310   40.7480   67.5150 O.2   517  ILE517     -0.2718
     54  CB       -91.7470   39.6760   68.4620 C.3   517  ILE517      0.0266
     55  CG1      -91.4970   38.5850   67.4150 C.3   517  ILE517      0.0019
     56  CG2      -93.1910   39.5060   68.9720 C.3   517  ILE517      0.0020
     57  CD1      -91.0610   37.2660   68.0490 C.3   517  ILE517      0.0001
     58  N        -89.9770   42.8240   67.9630 N.am  518  LYS518     -0.1966
     59  CA       -88.6470   43.3690   68.1890 C.3   518  LYS518      0.1728
     60  C        -88.7090   44.7050   68.9270 C.2   518  LYS518      0.2616
     61  O        -89.7710   45.1840   69.3020 O.2   518  LYS518     -0.2715
     62  CB       -87.9540   43.5470   66.8340 C.3   518  LYS518      0.0311
     63  CG       -88.8720   44.1610   65.7720 C.3   518  LYS518      0.0038
     64  CD       -88.2980   44.0140   64.3590 C.3   518  LYS518      0.0206
     65  CE       -88.1380   42.5480   63.9400 C.3   518  LYS518      0.1093
     66  NZ       -86.7650   42.1090   64.1880 N.3   518  LYS518     -0.1314
     67  N        -87.5160   45.2160   69.2510 N.am  519  ARG519     -0.1977
     68  CA       -87.4530   46.5170   69.8930 C.3   519  ARG519      0.1597
     69  C        -88.1230   47.5790   69.0270 C.2   519  ARG519      0.2287
     70  O        -87.9690   47.6240   67.8160 O.2   519  ARG519     -0.2864
     71  CB       -85.9780   46.8760   70.0990 C.3   519  ARG519      0.0334
     72  CG       -85.7970   48.3130   70.5660 C.3   519  ARG519      0.0492
     73  CD       -85.4160   48.3940   72.0480 C.3   519  ARG519      0.2205
     74  NE       -85.7020   47.1260   72.7240 N.pl3 519  ARG519     -0.0865
     75  CZ       -85.2200   46.9670   73.9700 C.cat 519  ARG519      0.5346
     76  NH1      -84.5240   47.9340   74.5420 N.pl3 519  ARG519      0.1354
     77  NH2      -85.4530   45.8270   74.6280 N.pl3 519  ARG519      0.1354
     78  N        -86.9780   49.9940   62.5090 N.3   524  LYS524     -0.1245
     79  CA       -87.5330   48.6390   62.5830 C.3   524  LYS524      0.1561
     80  C        -88.8610   48.6470   61.8370 C.2   524  LYS524      0.2260
     81  O        -89.3960   47.6120   61.4830 O.2   524  LYS524     -0.2867
     82  CB       -87.7930   48.2320   64.0400 C.3   524  LYS524      0.0271
     83  CG       -86.7910   47.2670   64.6350 C.3   524  LYS524      0.0035
     84  CD       -85.4070   47.8660   64.7370 C.3   524  LYS524      0.0206
     85  CE       -84.4960   46.9750   65.5890 C.3   524  LYS524      0.1093
     86  NZ       -84.3880   45.5970   65.0570 N.3   524  LYS524     -0.1314
     87  N        -93.1380   42.2500   76.2120 N.3   598  TYR598     -0.1227
     88  CA       -92.4530   41.2340   75.4190 C.3   598  TYR598      0.1736
     89  C        -91.0940   40.9080   76.0330 C.2   598  TYR598      0.2595
     90  O        -90.3090   41.8050   76.3440 O.2   598  TYR598     -0.2718
     91  CB       -92.2530   41.7370   73.9820 C.3   598  TYR598      0.0548
     92  CG       -91.3880   40.8360   73.1230 C.ar  598  TYR598     -0.0200
     93  CD1      -91.8060   39.5530   72.7860 C.ar  598  TYR598     -0.0009
     94  CD2      -90.1560   41.2730   72.6430 C.ar  598  TYR598     -0.0009
     95  CE1      -91.0220   38.7230   71.9850 C.ar  598  TYR598      0.0417
     96  CE2      -89.3610   40.4470   71.8390 C.ar  598  TYR598      0.0417
     97  CZ       -89.8050   39.1720   71.5170 C.ar  598  TYR598      0.1957
     98  OH       -89.0330   38.3470   70.7320 O.3   598  TYR598     -0.2866
     99  N        -90.8250   39.6180   76.2020 N.am  599  ASN599     -0.1960
    100  CA       -89.5730   39.1410   76.7820 C.3   599  ASN599      0.1819
    101  C        -89.3710   37.6970   76.3130 C.2   599  ASN599      0.2621
    102  O        -90.0600   37.2410   75.3980 O.2   599  ASN599     -0.2715
    103  CB       -89.6480   39.2340   78.3190 C.3   599  ASN599      0.1195
    104  CG       -88.2700   39.2290   78.9910 C.2   599  ASN599      0.2630
    105  OD1      -87.3480   38.5640   78.5160 O.2   599  ASN599     -0.2716
    106  ND2      -88.1160   39.9900   80.0690 N.am  599  ASN599     -0.0877
    107  N        -88.4500   36.9730   76.9320 N.am  600  VAL600     -0.1977
    108  CA       -88.1950   35.5990   76.5160 C.3   600  VAL600      0.1596
    109  C        -89.4020   34.6540   76.6170 C.2   600  VAL600      0.2287
    110  O        -89.6820   33.9260   75.6630 O.2   600  VAL600     -0.2864
    111  CB       -86.9900   35.0140   77.3020 C.3   600  VAL600      0.0276
    112  CG1      -86.7750   33.5390   76.9630 C.3   600  VAL600      0.0022
    113  CG2      -85.7360   35.8060   76.9620 C.3   600  VAL600      0.0022
    114  N        -91.9290   35.3100   74.0080 N.3   603  ALA603     -0.1245
    115  CA       -91.3700   34.8550   72.7450 C.3   603  ALA603      0.1562
    116  C        -91.5690   33.3460   72.6170 C.2   603  ALA603      0.2260
    117  O        -91.9430   32.8500   71.5540 O.2   603  ALA603     -0.2867
    118  CB       -89.8980   35.1910   72.6810 C.3   603  ALA603      0.0290
    119  N        -80.0050   39.4160   63.0790 N.3   625  GLY625     -0.1210
    120  CA       -81.4370   39.1510   63.1500 C.3   625  GLY625      0.1956
    121  C        -81.7090   37.7460   63.6850 C.2   625  GLY625      0.2613
    122  O        -82.0490   36.8250   62.9550 O.2   625  GLY625     -0.2717
    123  N        -81.4910   37.5790   65.0060 N.am  626  THR626     -0.1938
    124  CA       -81.6310   36.2460   65.5830 C.3   626  THR626      0.2028
    125  C        -83.0990   35.8420   65.7540 C.2   626  THR626      0.2643
    126  O        -83.4510   34.6710   65.7010 O.2   626  THR626     -0.2714
    127  CB       -80.9020   36.2050   66.9310 C.3   626  THR626      0.1808
    128  OG1      -81.2910   37.3300   67.7210 O.3   626  THR626     -0.2208
    129  CG2      -79.3890   36.2510   66.7080 C.3   626  THR626      0.0379
    130  N        -84.0080   36.7960   65.9410 N.am  627  SER627     -0.1935
    131  CA       -85.4150   36.4220   66.0680 C.3   627  SER627      0.2055
    132  C        -85.8720   35.8020   64.7380 C.2   627  SER627      0.2643
    133  O        -86.6910   34.8810   64.7230 O.2   627  SER627     -0.2714
    134  CB       -86.2930   37.6400   66.4130 C.3   627  SER627      0.2130
    135  OG       -86.2830   38.6040   65.3740 O.3   627  SER627     -0.2179
    136  N        -85.3360   36.3310   63.6370 N.am  628  ASN628     -0.1971
    137  CA       -85.6320   35.8690   62.2810 C.3   628  ASN628      0.1688
    138  C        -85.3790   34.3700   62.2130 C.2   628  ASN628      0.2292
    139  O        -86.1480   33.6080   61.6270 O.2   628  ASN628     -0.2864
    140  CB       -84.6890   36.5320   61.2710 C.3   628  ASN628      0.1181
    141  CG       -84.6430   38.0390   61.3970 C.2   628  ASN628      0.2629
    142  OD1      -84.6260   38.5830   62.5020 O.2   628  ASN628     -0.2716
    143  ND2      -84.5990   38.7280   60.2550 N.am  628  ASN628     -0.0877
    144  N        -85.2520   32.2840   64.7840 N.3   630  LYS630     -0.1245
    145  CA       -86.1580   31.5500   65.6420 C.3   630  LYS630      0.1561
    146  C        -87.4690   31.2590   64.9200 C.2   630  LYS630      0.2260
    147  O        -88.0150   30.1760   65.0440 O.2   630  LYS630     -0.2867
    148  CB       -86.4230   32.3370   66.9200 C.3   630  LYS630      0.0271
    149  CG       -85.1610   32.6480   67.7050 C.3   630  LYS630      0.0035
    150  CD       -85.4640   33.5740   68.8670 C.3   630  LYS630      0.0206
    151  CE       -84.1910   34.0140   69.5590 C.3   630  LYS630      0.1093
    152  NZ       -84.4720   35.1070   70.5340 N.3   630  LYS630     -0.1314
@<TRIPOS>BOND
     1   143   141   am
     2   140   141    1
     3   140   137    1
     4   141   142    2
     5    81    80    2
     6   139   138    2
     7    80    79    1
     8   138   137    1
     9   137   136    1
    10    78    79    1
    11    79    82    1
    12   122   121    2
    13   119   120    1
    14   120   121    1
    15   136   132   am
    16   121   123   am
    17    65    66    1
    18    65    64    1
    19    82    83    1
    20    64    63    1
    21    83    84    1
    22   133   132    2
    23    84    85    1
    24   132   131    1
    25   144   145    1
    26   146   147    2
    27   146   145    1
    28   123   124    1
    29    86    85    1
    30   135   134    1
    31   124   125    1
    32   124   127    1
    33   145   148    1
    34   126   125    2
    35   125   130   am
    36    63    62    1
    37   130   131    1
    38   131   134    1
    39    50    51    1
    40   129   127    1
    41    62    59    1
    42   148   149    1
    43   127   128    1
    44    55    57    1
    45    55    54    1
    46    53    52    2
    47   149   150    1
    48    51    52    1
    49    51    54    1
    50    70    69    2
    51    52    58   am
    52    58    59    1
    53    59    60    1
    54    54    56    1
    55    39    38    2
    56   150   151    1
    57    60    67   am
    58    60    61    2
    59    69    68    1
    60    67    68    1
    61   151   152    1
    62    38    37    1
    63    40    37    1
    64    40    41    1
    65    68    71    1
    66    71    72    1
    67    72    73    1
    68    37    36    1
    69    98    97    1
    70    41    42   ar
    71    41    43   ar
    72    22    23    1
    73    22    21    1
    74    42    44   ar
    75    43    46   ar
    76    43    45   ar
    77    24    23    2
    78    46    48   ar
    79    97    96   ar
    80    97    95   ar
    81   117   116    2
    82    21    19   am
    83    96    94   ar
    84    95    93   ar
    85    44    45   ar
    86    73    74    1
    87    45    47   ar
    88    48    49   ar
    89   116   115    1
    90    94    92   ar
    91   118   115    1
    92    74    75    2
    93   115   114    1
    94    93    92   ar
    95    30    29    1
    96    30    31    1
    97    19    20    2
    98    19    18    1
    99    47    49   ar
   100    92    91    1
   101    29    26    1
   102    27    28    2
   103    27    26    1
   104    18    17    1
   105    75    76    1
   106    75    77    1
   107    91    88    1
   108    26    25    1
   109    32    31    1
   110    32    33    2
   111    17    11   am
   112    35    33    1
   113    33    34    1
   114   102   101    2
   115    88    89    1
   116    88    87    1
   117   110   109    2
   118     8     6    1
   119    12    11    2
   120    15    14    2
   121    11    10    1
   122    89    99   am
   123    89    90    2
   124    16    14   am
   125    99   100    1
   126    14    13    1
   127   101   100    1
   128   101   107   am
   129   108   109    1
   130   108   107    1
   131   108   111    1
   132   100   103    1
   133    13    10    1
   134   113   111    1
   135   112   111    1
   136     5     6    1
   137     5     2    1
   138     6     7    1
   139    10     9    1
   140     4     3    2
   141   103   104    1
   142     1     2    1
   143     2     3    1
   144   105   104    2
   145   104   106   am
