@<TRIPOS>MOLECULE
tmp/2c4tA01.pdb
 121 119 0 0 0
SMALL
GASTEIGER

@<TRIPOS>ATOM
      1  N          4.6670   51.7290  -31.7970 N.3   203  ASP203     -0.1225
      2  CA         4.1700   51.4860  -30.4440 C.3   203  ASP203      0.1805
      3  C          3.1210   50.3640  -30.4450 C.2   203  ASP203      0.2597
      4  O          1.9390   50.6110  -30.6630 O.2   203  ASP203     -0.2718
      5  CB         3.5810   52.7900  -29.8860 C.3   203  ASP203      0.1424
      6  CG         3.3400   52.7460  -28.3760 C.2   203  ASP203      0.3668
      7  OD1        4.0360   51.9800  -27.6630 O.co2 203  ASP203     -0.2456
      8  OD2        2.4550   53.5090  -27.9050 O.co2 203  ASP203     -0.2456
      9  N          3.5740   49.1280  -30.2420 N.am  204  HIS204     -0.1975
     10  CA         2.6910   47.9630  -30.1760 C.3   204  HIS204      0.1656
     11  C          2.0800   47.8830  -28.7800 C.2   204  HIS204      0.2291
     12  O          2.7260   48.2840  -27.8030 O.2   204  HIS204     -0.2864
     13  CB         3.4590   46.6700  -30.4820 C.3   204  HIS204      0.0771
     14  CG         4.2260   46.6960  -31.7720 C.ar  204  HIS204      0.0820
     15  ND1        3.6150   46.7750  -33.0050 N.ar  204  HIS204     -0.2267
     16  CD2        5.5570   46.6240  -32.0170 C.ar  204  HIS204      0.1154
     17  CE1        4.5360   46.7610  -33.9520 C.ar  204  HIS204      0.1986
     18  NE2        5.7230   46.6770  -33.3770 N.ar  204  HIS204     -0.2212
     19  N         -0.7390   49.0930  -30.1940 N.3   206  PHE206     -0.1241
     20  CA        -1.6830   50.0980  -30.6890 C.3   206  PHE206      0.1605
     21  C         -1.3980   50.5270  -32.1310 C.2   206  PHE206      0.2264
     22  O         -2.3220   50.8290  -32.8950 O.2   206  PHE206     -0.2867
     23  CB        -1.7130   51.3080  -29.7560 C.3   206  PHE206      0.0534
     24  CG        -1.5740   50.9420  -28.3090 C.ar  206  PHE206     -0.0203
     25  CD1       -2.6600   50.4270  -27.6020 C.ar  206  PHE206     -0.0042
     26  CD2       -0.3500   51.0900  -27.6560 C.ar  206  PHE206     -0.0042
     27  CE1       -2.5260   50.0680  -26.2800 C.ar  206  PHE206     -0.0003
     28  CE2       -0.2070   50.7320  -26.3200 C.ar  206  PHE206     -0.0003
     29  CZ        -1.2810   50.2210  -25.6320 C.ar  206  PHE206     -0.0000
     30  N          0.7820   53.1340  -32.6420 N.3   208  ASN208     -0.1240
     31  CA         1.2190   54.5230  -32.5790 C.3   208  ASN208      0.1653
     32  C          2.6320   54.6260  -33.1890 C.2   208  ASN208      0.2266
     33  O          3.3780   53.6340  -33.2280 O.2   208  ASN208     -0.2867
     34  CB         1.2250   55.0430  -31.1390 C.3   208  ASN208      0.1155
     35  CG        -0.0560   54.7470  -30.3900 C.2   208  ASN208      0.2627
     36  OD1       -1.1670   54.9410  -30.8980 O.2   208  ASN208     -0.2716
     37  ND2        0.0910   54.3070  -29.1560 N.am  208  ASN208     -0.0877
     38  N          6.3570   56.3250  -32.9800 N.3   210  TRP210     -0.1241
     39  CA         7.3250   57.0300  -32.1400 C.3   210  TRP210      0.1605
     40  C          8.5120   57.5080  -32.9740 C.2   210  TRP210      0.2264
     41  O          9.0300   56.7510  -33.8000 O.2   210  TRP210     -0.2867
     42  CB         7.8190   56.0810  -31.0410 C.3   210  TRP210      0.0550
     43  CG         6.8370   55.8180  -29.9240 C.ar  210  TRP210      0.0003
     44  CD1        5.5350   56.2310  -29.8480 C.ar  210  TRP210      0.0946
     45  CD2        7.0920   55.0790  -28.7260 C.ar  210  TRP210      0.0152
     46  NE1        4.9640   55.8050  -28.6650 N.ar  210  TRP210     -0.2442
     47  CE2        5.8990   55.1000  -27.9540 C.ar  210  TRP210      0.0810
     48  CE3        8.2180   54.4160  -28.2150 C.ar  210  TRP210      0.0012
     49  CZ2        5.7990   54.4710  -26.7070 C.ar  210  TRP210      0.0191
     50  CZ3        8.1220   53.8020  -26.9770 C.ar  210  TRP210      0.0001
     51  CH2        6.9160   53.8270  -26.2410 C.ar  210  TRP210      0.0015
     52  N         -4.2040   61.5020  -26.7380 N.3   247  PHE247     -0.1241
     53  CA        -4.8800   60.9890  -27.9400 C.3   247  PHE247      0.1605
     54  C         -6.2650   61.5930  -28.1740 C.2   247  PHE247      0.2264
     55  O         -6.6020   61.9530  -29.3020 O.2   247  PHE247     -0.2867
     56  CB        -4.9790   59.4530  -27.8960 C.3   247  PHE247      0.0534
     57  CG        -3.6780   58.7630  -27.5710 C.ar  247  PHE247     -0.0203
     58  CD1       -2.7020   58.5820  -28.5530 C.ar  247  PHE247     -0.0042
     59  CD2       -3.4370   58.2790  -26.2880 C.ar  247  PHE247     -0.0042
     60  CE1       -1.4990   57.9480  -28.2600 C.ar  247  PHE247     -0.0003
     61  CE2       -2.2350   57.6450  -25.9870 C.ar  247  PHE247     -0.0003
     62  CZ        -1.2600   57.4810  -26.9810 C.ar  247  PHE247     -0.0000
     63  N          4.9930   61.0850  -26.2630 N.3   261  ASN261     -0.1225
     64  CA         4.7200   59.7920  -25.6300 C.3   261  ASN261      0.1785
     65  C          5.2440   59.7600  -24.1960 C.2   261  ASN261      0.2598
     66  O          5.8940   60.7130  -23.7560 O.2   261  ASN261     -0.2718
     67  CB         5.2490   58.6180  -26.4780 C.3   261  ASN261      0.1169
     68  CG         6.7760   58.6370  -26.6690 C.2   261  ASN261      0.2627
     69  OD1        7.5300   59.0030  -25.7710 O.2   261  ASN261     -0.2716
     70  ND2        7.2280   58.2030  -27.8390 N.am  261  ASN261     -0.0877
     71  N          4.9800   58.6730  -23.4750 N.am  262  SER262     -0.1938
     72  CA         5.3630   58.5880  -22.0690 C.3   262  SER262      0.2055
     73  C          6.8810   58.4860  -21.8410 C.2   262  SER262      0.2642
     74  O          7.3340   58.4160  -20.6990 O.2   262  SER262     -0.2714
     75  CB         4.6230   57.4310  -21.3830 C.3   262  SER262      0.2130
     76  OG         5.1450   56.1830  -21.7920 O.3   262  SER262     -0.2179
     77  N          7.6580   58.4820  -22.9230 N.am  263  ARG263     -0.1977
     78  CA         9.1310   58.3690  -22.8240 C.3   263  ARG263      0.1597
     79  C          9.7920   59.7140  -23.1040 C.2   263  ARG263      0.2287
     80  O         11.0060   59.8330  -23.0020 O.2   263  ARG263     -0.2864
     81  CB         9.7000   57.2830  -23.7600 C.3   263  ARG263      0.0334
     82  CG         8.8830   55.9810  -23.8450 C.3   263  ARG263      0.0492
     83  CD         8.6330   55.3970  -22.4710 C.3   263  ARG263      0.2205
     84  NE         7.7830   54.2150  -22.5290 N.pl3 263  ARG263     -0.0865
     85  CZ         8.2350   52.9700  -22.4380 C.cat 263  ARG263      0.5346
     86  NH1        9.5430   52.7320  -22.2830 N.pl3 263  ARG263      0.1354
     87  NH2        7.3800   51.9640  -22.5110 N.pl3 263  ARG263      0.1354
     88  N         -0.2670   59.3980  -33.7020 N.3   269  ALA269     -0.1231
     89  CA        -1.2080   58.3120  -33.5620 C.3   269  ALA269      0.1694
     90  C         -2.5320   58.7370  -34.1870 C.2   269  ALA269      0.2592
     91  O         -2.6690   59.8550  -34.6900 O.2   269  ALA269     -0.2718
     92  CB        -1.3940   58.0090  -32.0980 C.3   269  ALA269      0.0304
     93  N         -3.4930   57.8210  -34.1770 N.am  270  ARG270     -0.1966
     94  CA        -4.8890   58.1640  -34.3360 C.3   270  ARG270      0.1729
     95  C         -5.5420   57.9740  -32.9770 C.2   270  ARG270      0.2616
     96  O         -5.1120   57.1310  -32.1870 O.2   270  ARG270     -0.2715
     97  CB        -5.5560   57.2720  -35.3850 C.3   270  ARG270      0.0348
     98  CG        -5.0820   57.5350  -36.8070 C.3   270  ARG270      0.0492
     99  CD        -5.4850   56.4210  -37.7470 C.3   270  ARG270      0.2205
    100  NE        -6.8320   56.6140  -38.2650 N.pl3 270  ARG270     -0.0865
    101  CZ        -7.6390   55.6230  -38.6370 C.cat 270  ARG270      0.5346
    102  NH1       -7.2330   54.3600  -38.5350 N.pl3 270  ARG270      0.1354
    103  NH2       -8.8560   55.8930  -39.0990 N.pl3 270  ARG270      0.1354
    104  N         -6.5690   58.7770  -32.7080 N.am  271  ASN271     -0.1958
    105  CA        -7.3940   58.6460  -31.5140 C.3   271  ASN271      0.1819
    106  C         -8.1710   57.3320  -31.5160 C.2   271  ASN271      0.2621
    107  O         -9.1270   57.1790  -32.2810 O.2   271  ASN271     -0.2715
    108  CB        -8.3620   59.8330  -31.4120 C.3   271  ASN271      0.1195
    109  CG        -9.2170   59.7950  -30.1490 C.2   271  ASN271      0.2630
    110  OD1       -8.8140   59.2390  -29.1240 O.2   271  ASN271     -0.2716
    111  ND2      -10.3990   60.4070  -30.2150 N.am  271  ASN271     -0.0877
    112  N         -7.7500   56.3970  -30.6610 N.am  272  ALA272     -0.1963
    113  CA        -8.3900   55.0810  -30.5020 C.3   272  ALA272      0.1728
    114  C         -8.6090   54.3400  -31.8250 C.2   272  ALA272      0.2616
    115  O         -9.6200   53.6430  -32.0180 O.2   272  ALA272     -0.2715
    116  CB        -9.6890   55.1910  -29.7030 C.3   272  ALA272      0.0334
    117  N         -7.6560   54.5210  -32.7360 N.am  273  ALA273     -0.1977
    118  CA        -7.5080   53.6930  -33.9230 C.3   273  ALA273      0.1597
    119  C         -6.0080   53.5300  -34.1360 C.2   273  ALA273      0.2287
    120  O         -5.2130   54.2040  -33.4950 O.2   273  ALA273     -0.2864
    121  CB        -8.1700   54.3350  -35.1340 C.3   273  ALA273      0.0319
@<TRIPOS>BOND
     1   103   101    1
     2   101   102    1
     3   101   100    2
     4   100    99    1
     5    99    98    1
     6    98    97    1
     7    97    94    1
     8   121   118    1
     9    91    90    2
    10    94    93    1
    11    94    95    1
    12    90    93   am
    13    90    89    1
    14   119   118    1
    15   119   120    2
    16    17    18   ar
    17    17    15   ar
    18   118   117    1
    19    41    40    2
    20    88    89    1
    21    89    92    1
    22    18    16   ar
    23    33    32    2
    24    32    31    1
    25    15    14   ar
    26    38    39    1
    27    95   104   am
    28    95    96    2
    29    40    39    1
    30    22    21    2
    31   117   114   am
    32   104   105    1
    33    30    31    1
    34    31    34    1
    35   107   106    2
    36    39    42    1
    37    21    20    1
    38   115   114    2
    39    16    14   ar
    40   114   113    1
    41     1     2    1
    42    14    13    1
    43   106   105    1
    44   106   112   am
    45   105   108    1
    46   108   109    1
    47    34    35    1
    48    42    43    1
    49    36    35    2
    50    20    19    1
    51    20    23    1
    52     4     3    2
    53   112   113    1
    54   113   116    1
    55    13    10    1
    56     3     2    1
    57     3     9   am
    58     2     5    1
    59    35    37   am
    60     9    10    1
    61   111   109   am
    62    10    11    1
    63   109   110    2
    64    43    44   ar
    65    43    45   ar
    66     5     6    1
    67    44    46   ar
    68    23    24    1
    69    55    54    2
    70    11    12    2
    71    45    48   ar
    72    45    47   ar
    73    46    47   ar
    74    58    60   ar
    75    58    57   ar
    76     6     8   ar
    77     6     7   ar
    78    24    26   ar
    79    24    25   ar
    80    60    62   ar
    81    48    50   ar
    82    54    53    1
    83    47    49   ar
    84    53    56    1
    85    53    52    1
    86    56    57    1
    87    70    68   am
    88    26    28   ar
    89    25    27   ar
    90    57    59   ar
    91    62    61   ar
    92    50    51   ar
    93    49    51   ar
    94    68    67    1
    95    68    69    2
    96    67    64    1
    97    28    29   ar
    98    59    61   ar
    99    27    29   ar
   100    63    64    1
   101    64    65    1
   102    65    66    2
   103    65    71   am
   104    82    81    1
   105    82    83    1
   106    81    78    1
   107    71    72    1
   108    79    80    2
   109    79    78    1
   110    77    78    1
   111    77    73   am
   112    84    83    1
   113    84    85    2
   114    87    85    1
   115    85    86    1
   116    72    73    1
   117    72    75    1
   118    73    74    2
   119    76    75    1
