@<TRIPOS>MOLECULE
tmp/2c4tA00.pdb
 110 107 0 0 0
SMALL
GASTEIGER

@<TRIPOS>ATOM
      1  N         16.3130   38.4880  -25.2420 N.3     9  ASP9       -0.1225
      2  CA        15.8360   38.1120  -26.5800 C.3     9  ASP9        0.1805
      3  C         15.5190   36.6010  -26.6580 C.2     9  ASP9        0.2597
      4  O         15.5110   36.0040  -27.7370 O.2     9  ASP9       -0.2718
      5  CB        16.8530   38.5290  -27.6590 C.3     9  ASP9        0.1424
      6  CG        18.2050   37.8080  -27.5330 C.2     9  ASP9        0.3668
      7  OD1       18.5120   37.2360  -26.4650 O.co2   9  ASP9       -0.2456
      8  OD2       18.9670   37.8200  -28.5240 O.co2   9  ASP9       -0.2456
      9  N         15.2360   36.0050  -25.5060 N.am   10  LEU10      -0.1979
     10  CA        15.0670   34.5560  -25.3840 C.3    10  LEU10       0.1596
     11  C         13.7130   34.0850  -25.8880 C.2    10  LEU10       0.2287
     12  O         13.5430   32.9070  -26.2340 O.2    10  LEU10      -0.2864
     13  CB        15.2950   34.0880  -23.9320 C.3    10  LEU10       0.0297
     14  CG        16.7050   34.2850  -23.3440 C.3    10  LEU10       0.0022
     15  CD1       16.8210   33.7870  -21.9060 C.3    10  LEU10       0.0001
     16  CD2       17.8060   33.6740  -24.2080 C.3    10  LEU10       0.0001
     17  N          9.6750   28.7530  -25.3750 N.3    14  ASP14      -0.1239
     18  CA        10.1810   27.5400  -24.7590 C.3    14  ASP14       0.1674
     19  C         10.5970   27.8130  -23.3160 C.2    14  ASP14       0.2266
     20  O         10.2000   28.8270  -22.7470 O.2    14  ASP14      -0.2867
     21  CB        11.3140   26.9240  -25.5970 C.3    14  ASP14       0.1410
     22  CG        12.6230   27.6970  -25.5240 C.2    14  ASP14       0.3668
     23  OD1       12.6920   28.8030  -24.9610 O.co2  14  ASP14      -0.2456
     24  OD2       13.6110   27.1700  -26.0440 O.co2  14  ASP14      -0.2456
     25  N         13.5860   28.5620  -22.0340 N.3    16  SER16      -0.1217
     26  CA        14.8240   29.3440  -21.8710 C.3    16  SER16       0.1889
     27  C         14.8210   30.3720  -20.7150 C.2    16  SER16       0.2288
     28  O         15.7850   30.4510  -19.9610 O.2    16  SER16      -0.2866
     29  CB        15.2120   30.0070  -23.1910 C.3    16  SER16       0.2089
     30  OG        15.2570   29.0240  -24.2070 O.3    16  SER16      -0.2183
     31  N         14.6430   28.5770  -17.2460 N.3    19  GLN19      -0.1245
     32  CA        15.9460   28.0330  -16.8180 C.3    19  GLN19       0.1566
     33  C         16.7520   29.0870  -16.0870 C.2    19  GLN19       0.2260
     34  O         17.3740   28.8180  -15.0590 O.2    19  GLN19      -0.2867
     35  CB        16.7320   27.4840  -18.0160 C.3    19  GLN19       0.0367
     36  CG        16.0600   26.2720  -18.6640 C.3    19  GLN19       0.0905
     37  CD        16.8040   25.7440  -19.8630 C.2    19  GLN19       0.2608
     38  OE1       17.9030   26.1900  -20.1730 O.2    19  GLN19      -0.2717
     39  NE2       16.2090   24.7690  -20.5400 N.am   19  GLN19      -0.0878
     40  N         16.1190   39.6680  -31.8650 N.3    42  PRO42      -0.2102
     41  CA        17.4340   39.1580  -31.5080 C.3    42  PRO42       0.1504
     42  C         18.5550   39.9670  -32.1660 C.2    42  PRO42       0.2575
     43  O         18.4710   40.2800  -33.3590 O.2    42  PRO42      -0.2718
     44  CB        17.4120   37.7430  -32.0740 C.3    42  PRO42       0.0282
     45  CG        15.9800   37.3520  -32.0720 C.3    42  PRO42       0.0208
     46  CD        15.2050   38.6020  -32.3150 C.3    42  PRO42       0.0893
     47  N         19.5760   40.3170  -31.3810 N.am   43  TRP43      -0.1977
     48  CA        20.8190   40.9340  -31.8820 C.3    43  TRP43       0.1640
     49  C         20.6580   42.4130  -32.2650 C.2    43  TRP43       0.2290
     50  O         21.5780   43.0320  -32.7990 O.2    43  TRP43      -0.2864
     51  CB        21.4480   40.0980  -33.0210 C.3    43  TRP43       0.0576
     52  CG        21.2170   38.6130  -32.8430 C.ar   43  TRP43       0.0006
     53  CD1       21.5090   37.8670  -31.7400 C.ar   43  TRP43       0.0946
     54  CD2       20.6260   37.7150  -33.7900 C.ar   43  TRP43       0.0152
     55  NE1       21.1260   36.5580  -31.9320 N.ar   43  TRP43      -0.2442
     56  CE2       20.5900   36.4330  -33.1850 C.ar   43  TRP43       0.0810
     57  CE3       20.1260   37.8640  -35.0890 C.ar   43  TRP43       0.0012
     58  CZ2       20.0800   35.3060  -33.8390 C.ar   43  TRP43       0.0191
     59  CZ3       19.6100   36.7530  -35.7280 C.ar   43  TRP43       0.0001
     60  CH2       19.5950   35.4860  -35.1050 C.ar   43  TRP43       0.0015
     61  N         22.6240   38.3720  -26.8720 N.3    70  TYR70      -0.1228
     62  CA        24.0370   37.9400  -26.8270 C.3    70  TYR70       0.1721
     63  C         24.5690   37.2770  -28.1020 C.2    70  TYR70       0.2437
     64  O         24.9230   36.1070  -28.0580 O.2    70  TYR70      -0.2733
     65  CB        24.2770   37.0010  -25.6260 C.3    70  TYR70       0.0547
     66  CG        25.4400   37.3940  -24.7210 C.ar   70  TYR70      -0.0200
     67  CD1       25.2180   37.6640  -23.3750 C.ar   70  TYR70      -0.0009
     68  CD2       26.7480   37.4940  -25.2030 C.ar   70  TYR70      -0.0009
     69  CE1       26.2520   38.0130  -22.5290 C.ar   70  TYR70       0.0417
     70  CE2       27.8000   37.8500  -24.3580 C.ar   70  TYR70       0.0417
     71  CZ        27.5330   38.1090  -23.0190 C.ar   70  TYR70       0.1957
     72  OH        28.5270   38.4550  -22.1470 O.3    70  TYR70      -0.2866
     73  N         24.6540   38.0180  -29.2310 N.am   71  PRO71      -0.2729
     74  CA        25.2260   37.4030  -30.4410 C.3    71  PRO71       0.1401
     75  C         26.6890   36.9070  -30.3060 C.2    71  PRO71       0.2269
     76  O         27.0990   35.9940  -31.0390 O.2    71  PRO71      -0.2865
     77  CB        25.1030   38.5060  -31.5130 C.3    71  PRO71       0.0296
     78  CG        24.8760   39.7690  -30.7820 C.3    71  PRO71       0.0237
     79  CD        24.2530   39.4210  -29.4530 C.3    71  PRO71       0.0939
     80  N         27.8300   35.2790  -27.8370 N.3    73  THR73      -0.1218
     81  CA        27.7830   34.1800  -26.8800 C.3    73  THR73       0.1862
     82  C         28.7780   33.0820  -27.2450 C.2    73  THR73       0.2287
     83  O         28.9020   32.7150  -28.4150 O.2    73  THR73      -0.2866
     84  CB        26.3400   33.6030  -26.7080 C.3    73  THR73       0.1770
     85  OG1       26.3420   32.6480  -25.6440 O.3    73  THR73      -0.2211
     86  CG2       25.8090   32.9420  -27.9750 C.3    73  THR73       0.0375
     87  N         26.6010   28.4460  -26.1550 N.3   148  THR148     -0.1203
     88  CA        25.4800   29.1180  -26.7990 C.3   148  THR148      0.1994
     89  C         24.4380   29.7300  -25.8450 C.2   148  THR148      0.2617
     90  O         23.3720   30.1300  -26.3020 O.2   148  THR148     -0.2717
     91  CB        24.7620   28.1930  -27.8170 C.3   148  THR148      0.1784
     92  OG1       24.0090   27.1940  -27.1160 O.3   148  THR148     -0.2211
     93  CG2       25.7630   27.5380  -28.7830 C.3   148  THR148      0.0376
     94  N         24.7250   29.8130  -24.5420 N.am  149  PHE149     -0.1975
     95  CA        23.7420   30.3900  -23.5980 C.3   149  PHE149      0.1639
     96  C         24.3360   31.4000  -22.6080 C.2   149  PHE149      0.2290
     97  O         24.0600   31.3310  -21.4090 O.2   149  PHE149     -0.2864
     98  CB        22.9740   29.2860  -22.8410 C.3   149  PHE149      0.0560
     99  CG        21.5280   29.6420  -22.5060 C.ar  149  PHE149     -0.0200
    100  CD1       21.1230   30.9600  -22.3230 C.ar  149  PHE149     -0.0042
    101  CD2       20.5790   28.6430  -22.3630 C.ar  149  PHE149     -0.0042
    102  CE1       19.8020   31.2760  -22.0060 C.ar  149  PHE149     -0.0003
    103  CE2       19.2420   28.9550  -22.0470 C.ar  149  PHE149     -0.0003
    104  CZ        18.8610   30.2720  -21.8750 C.ar  149  PHE149     -0.0000
    105  N         23.5490   34.4770  -22.1980 N.3   151  SER151     -0.1217
    106  CA        22.4230   35.2040  -21.5670 C.3   151  SER151      0.1889
    107  C         22.0550   34.6680  -20.1710 C.2   151  SER151      0.2288
    108  O         21.5880   35.3990  -19.3040 O.2   151  SER151     -0.2866
    109  CB        21.1850   35.1760  -22.4690 C.3   151  SER151      0.2089
    110  OG        21.3430   36.0330  -23.5850 O.3   151  SER151     -0.2183
@<TRIPOS>BOND
     1    59    60   ar
     2    59    57   ar
     3    60    58   ar
     4    57    54   ar
     5    58    56   ar
     6    54    56   ar
     7    54    52   ar
     8    43    42    2
     9    56    55   ar
    10    51    52    1
    11    51    48    1
    12    52    53   ar
    13    50    49    2
    14    46    45    1
    15    46    40    1
    16    49    48    1
    17    42    41    1
    18    42    47   am
    19    44    45    1
    20    44    41    1
    21    55    53   ar
    22    48    47    1
    23    40    41    1
    24    77    78    1
    25    77    74    1
    26    76    75    2
    27    78    79    1
    28    74    75    1
    29    74    73    1
    30    79    73    1
    31    73    63   am
    32    93    91    1
    33     8     6   ar
    34    83    82    2
    35    63    64    2
    36    63    62    1
    37    86    84    1
    38    80    81    1
    39    91    92    1
    40    91    88    1
    41     4     3    2
    42     5     6    1
    43     5     2    1
    44     6     7   ar
    45    82    81    1
    46    81    84    1
    47    61    62    1
    48    62    65    1
    49    88    87    1
    50    88    89    1
    51    84    85    1
    52     3     2    1
    53     3     9   am
    54     2     1    1
    55    90    89    2
    56    12    11    2
    57    24    22   ar
    58    11    10    1
    59    89    94   am
    60    65    66    1
    61    21    22    1
    62    21    18    1
    63    22    23   ar
    64     9    10    1
    65    10    13    1
    66    17    18    1
    67    68    66   ar
    68    68    70   ar
    69    18    19    1
    70    66    67   ar
    71    94    95    1
    72    70    71   ar
    73    16    14    1
    74    30    29    1
    75    13    14    1
    76    95    98    1
    77    95    96    1
    78   110   109    1
    79    67    69   ar
    80    14    15    1
    81    19    20    2
    82    29    26    1
    83    71    69   ar
    84    71    72    1
    85    98    99    1
    86    96    97    2
    87    99   101   ar
    88    99   100   ar
    89   109   106    1
    90   101   103   ar
    91   100   102   ar
    92   105   106    1
    93   103   104   ar
    94    25    26    1
    95   102   104   ar
    96    26    27    1
    97   106   107    1
    98    27    28    2
    99    39    37   am
   100    38    37    2
   101   107   108    2
   102    37    36    1
   103    36    35    1
   104    35    32    1
   105    31    32    1
   106    32    33    1
   107    33    34    2
