@<TRIPOS>MOLECULE
tmp/2c4wA00.pdb
 167 161 0 0 0
SMALL
GASTEIGER

@<TRIPOS>ATOM
      1  N         23.8240   56.9630  114.3240 N.3    18  PRO18      -0.2102
      2  CA        24.1900   56.5100  115.6600 C.3    18  PRO18       0.1504
      3  C         25.6170   56.8960  116.0660 C.2    18  PRO18       0.2576
      4  O         26.5420   56.9660  115.2380 O.2    18  PRO18      -0.2718
      5  CB        24.0160   54.9680  115.5900 C.3    18  PRO18       0.0282
      6  CG        24.0350   54.6540  114.1540 C.3    18  PRO18       0.0208
      7  CD        23.4480   55.8410  113.4520 C.3    18  PRO18       0.0893
      8  N         25.7630   57.1380  117.3680 N.am   19  ASN19      -0.1961
      9  CA        27.0300   57.4200  118.0480 C.3    19  ASN19       0.1819
     10  C         27.6480   58.7940  117.7970 C.2    19  ASN19       0.2621
     11  O         28.5140   59.2290  118.5620 O.2    19  ASN19      -0.2715
     12  CB        28.0520   56.3140  117.7730 C.3    19  ASN19       0.1195
     13  CG        27.5450   54.9090  118.1900 C.2    19  ASN19       0.2630
     14  OD1       26.9450   54.7610  119.2750 O.2    19  ASN19      -0.2716
     15  ND2       27.7830   53.9040  117.3470 N.am   19  ASN19      -0.0877
     16  N         27.2220   59.4880  116.7370 N.am   20  LEU20      -0.1977
     17  CA        27.7870   60.7910  116.3960 C.3    20  LEU20       0.1596
     18  C         27.6270   61.8470  117.4830 C.2    20  LEU20       0.2287
     19  O         28.4700   62.7580  117.5890 O.2    20  LEU20      -0.2864
     20  CB        27.2160   61.2710  115.0640 C.3    20  LEU20       0.0297
     21  CG        27.7870   60.5530  113.8270 C.3    20  LEU20       0.0022
     22  CD1       26.8110   60.6170  112.6520 C.3    20  LEU20       0.0001
     23  CD2       29.1610   61.0600  113.4250 C.3    20  LEU20       0.0001
     24  N         28.3460   61.5210  120.4480 N.3    22  MET22      -0.1230
     25  CA        29.4350   61.3860  121.4150 C.3    22  MET22       0.1702
     26  C         30.7540   61.9620  120.9180 C.2    22  MET22       0.2592
     27  O         31.7640   61.8650  121.6160 O.2    22  MET22      -0.2718
     28  CB        29.6130   59.9170  121.8020 C.3    22  MET22       0.0401
     29  CG        28.3350   59.3050  122.3020 C.3    22  MET22       0.0596
     30  SD        27.6470   60.0190  123.7760 S.3    22  MET22      -0.1393
     31  CE        28.8630   59.4550  124.9480 C.3    22  MET22       0.0692
     32  N         30.7640   62.5410  119.7170 N.am   23  LEU23      -0.1980
     33  CA        31.9690   63.2350  119.2290 C.3    23  LEU23       0.1596
     34  C         32.4850   64.2400  120.2430 C.2    23  LEU23       0.2287
     35  O         31.7310   65.0180  120.8130 O.2    23  LEU23      -0.2864
     36  CB        31.6790   63.9850  117.9310 C.3    23  LEU23       0.0297
     37  CG        31.7120   63.0960  116.7060 C.3    23  LEU23       0.0022
     38  CD1       31.0080   63.8250  115.5530 C.3    23  LEU23       0.0001
     39  CD2       33.1720   62.7090  116.2950 C.3    23  LEU23       0.0001
     40  N         34.4960   61.2370  123.6820 N.3    26  ARG26      -0.1231
     41  CA        35.3230   60.0090  123.6790 C.3    26  ARG26       0.1694
     42  C         36.4590   60.1230  122.6650 C.2    26  ARG26       0.2592
     43  O         37.6050   59.7440  122.9310 O.2    26  ARG26      -0.2718
     44  CB        34.4670   58.7920  123.3080 C.3    26  ARG26       0.0321
     45  CG        33.0120   58.8760  123.7090 C.3    26  ARG26       0.0489
     46  CD        32.7850   59.2510  125.1790 C.3    26  ARG26       0.2205
     47  NE        33.9850   59.0700  126.0040 N.pl3  26  ARG26      -0.0865
     48  CZ        34.3440   57.9360  126.6000 C.cat  26  ARG26       0.5346
     49  NH1       33.5790   56.8620  126.5260 N.pl3  26  ARG26       0.1354
     50  NH2       35.4690   57.8930  127.3110 N.pl3  26  ARG26       0.1354
     51  N         36.0710   60.5910  121.4830 N.am   27  ASP27      -0.1960
     52  CA        36.9350   61.0290  120.3940 C.3    27  ASP27       0.1825
     53  C         36.1360   62.2260  119.8730 C.2    27  ASP27       0.2464
     54  O         35.0630   62.4770  120.3860 O.2    27  ASP27      -0.2730
     55  CB        37.0470   59.9210  119.3380 C.3    27  ASP27       0.1450
     56  CG        38.2130   59.0040  119.5700 C.2    27  ASP27       0.3671
     57  OD1       38.1820   58.2450  120.5630 O.co2  27  ASP27      -0.2456
     58  OD2       39.1460   59.0200  118.7410 O.co2  27  ASP27      -0.2456
     59  N         36.6270   62.9740  118.8780 N.am   28  PRO28      -0.2727
     60  CA        37.8650   62.7870  118.1870 C.3    28  PRO28       0.1402
     61  C         38.9740   63.6640  118.7710 C.2    28  PRO28       0.2269
     62  O         38.9410   64.8970  118.6660 O.2    28  PRO28      -0.2865
     63  CB        37.4930   63.1990  116.7620 C.3    28  PRO28       0.0296
     64  CG        36.5230   64.3470  116.9630 C.3    28  PRO28       0.0237
     65  CD        35.9230   64.1590  118.3410 C.3    28  PRO28       0.0939
     66  N         41.0180   62.8080  117.0850 N.3    30  LEU30      -0.1231
     67  CA        41.1760   62.8410  115.6230 C.3    30  LEU30       0.1693
     68  C         40.8870   64.1950  114.9620 C.2    30  LEU30       0.2592
     69  O         41.4440   64.4750  113.8970 O.2    30  LEU30      -0.2718
     70  CB        40.3160   61.7500  114.9700 C.3    30  LEU30       0.0284
     71  CG        40.7750   60.3070  115.1780 C.3    30  LEU30       0.0019
     72  CD1       39.7350   59.3810  114.5930 C.3    30  LEU30       0.0001
     73  CD2       42.1040   60.0360  114.5220 C.3    30  LEU30       0.0001
     74  N         40.0190   65.0100  115.5710 N.am   31  TYR31      -0.1976
     75  CA        39.8190   66.4140  115.1630 C.3    31  TYR31       0.1639
     76  C         39.9450   67.3420  116.3850 C.2    31  TYR31       0.2290
     77  O         39.4370   68.4560  116.3760 O.2    31  TYR31      -0.2864
     78  CB        38.4620   66.6250  114.4460 C.3    31  TYR31       0.0560
     79  CG        38.0910   65.5180  113.4820 C.ar   31  TYR31      -0.0198
     80  CD1       36.8870   64.8280  113.6100 C.ar   31  TYR31      -0.0009
     81  CD2       38.9590   65.1390  112.4560 C.ar   31  TYR31      -0.0009
     82  CE1       36.5490   63.7960  112.7310 C.ar   31  TYR31       0.0417
     83  CE2       38.6340   64.1070  111.5800 C.ar   31  TYR31       0.0417
     84  CZ        37.4260   63.4420  111.7280 C.ar   31  TYR31       0.1957
     85  OH        37.1030   62.4230  110.8740 O.3    31  TYR31      -0.2866
     86  N         24.3330   61.4790  107.4210 N.3    85  ASN85      -0.1240
     87  CA        25.3650   60.5330  107.8090 C.3    85  ASN85       0.1653
     88  C         24.7100   59.3870  108.5940 C.2    85  ASN85       0.2266
     89  O         24.5340   59.5000  109.7990 O.2    85  ASN85      -0.2867
     90  CB        26.4470   61.2240  108.6520 C.3    85  ASN85       0.1155
     91  CG        27.5930   60.3030  109.0000 C.2    85  ASN85       0.2627
     92  OD1       27.5050   59.0830  108.7900 O.2    85  ASN85      -0.2716
     93  ND2       28.6970   60.8880  109.5570 N.am   85  ASN85      -0.0877
     94  N         26.0950   56.7560  109.4480 N.3    87  GLY87      -0.1210
     95  CA        27.1270   56.0840  110.2420 C.3    87  GLY87       0.1956
     96  C         27.1070   54.5930  110.0280 C.2    87  GLY87       0.2611
     97  O         26.9600   54.1330  108.8930 O.2    87  GLY87      -0.2717
     98  N         27.2060   53.8380  111.1090 N.am   88  ALA88      -0.1979
     99  CA        27.2640   52.3870  111.0300 C.3    88  ALA88       0.1597
    100  C         26.0400   51.7380  110.3800 C.2    88  ALA88       0.2287
    101  O         26.1270   50.6110  109.9130 O.2    88  ALA88      -0.2864
    102  CB        27.4680   51.8290  112.4120 C.3    88  ALA88       0.0319
    103  N         26.0360   50.4150  106.3560 N.3    91  HIS91      -0.1241
    104  CA        26.5100   49.1130  105.8590 C.3    91  HIS91       0.1621
    105  C         25.4500   48.0290  105.9080 C.2    91  HIS91       0.2264
    106  O         25.6060   46.9850  105.2530 O.2    91  HIS91      -0.2867
    107  CB        27.7170   48.6710  106.6820 C.3    91  HIS91       0.0745
    108  CG        28.6410   49.7980  107.0020 C.ar   91  HIS91       0.0817
    109  ND1       29.2960   50.5260  106.0340 N.ar   91  HIS91      -0.2268
    110  CD2       28.9380   50.3840  108.1890 C.ar   91  HIS91       0.1154
    111  CE1       29.9920   51.4850  106.6140 C.ar   91  HIS91       0.1986
    112  NE2       29.8110   51.4090  107.9230 N.ar   91  HIS91      -0.2212
    113  N         30.4300   60.8950  105.3960 N.3   111  HIS111     -0.1226
    114  CA        31.0960   60.2160  106.5370 C.3   111  HIS111      0.1752
    115  C         32.3290   61.0190  106.9340 C.2   111  HIS111      0.2596
    116  O         33.0610   61.5040  106.0640 O.2   111  HIS111     -0.2718
    117  CB        31.5100   58.7890  106.1630 C.3   111  HIS111      0.0759
    118  CG        30.3400   57.9040  105.9390 C.ar  111  HIS111      0.0818
    119  ND1       29.7030   57.2390  106.9670 N.ar  111  HIS111     -0.2268
    120  CD2       29.6310   57.6340  104.8140 C.ar  111  HIS111      0.1154
    121  CE1       28.6410   56.5980  106.4810 C.ar  111  HIS111      0.1986
    122  NE2       28.5920   56.8040  105.1730 N.ar  111  HIS111     -0.2212
    123  N         32.5950   61.0940  108.2310 N.am  112  LEU112     -0.1966
    124  CA        33.8050   61.7440  108.7690 C.3   112  LEU112      0.1728
    125  C         35.0570   61.0440  108.2800 C.2   112  LEU112      0.2616
    126  O         35.9870   61.6800  107.7260 O.2   112  LEU112     -0.2715
    127  CB        33.7570   61.7520  110.3090 C.3   112  LEU112      0.0311
    128  CG        32.6620   62.6360  110.9180 C.3   112  LEU112      0.0022
    129  CD1       32.5440   62.2990  112.3770 C.3   112  LEU112      0.0001
    130  CD2       32.9940   64.1150  110.7310 C.3   112  LEU112      0.0001
    131  N         35.0580   59.7330  108.4810 N.am  113  THR113     -0.1951
    132  CA        36.1810   58.8840  108.1270 C.3   113  THR113      0.1897
    133  C         36.0360   58.3120  106.7380 C.2   113  THR113      0.2313
    134  O         34.9460   58.2600  106.1280 O.2   113  THR113     -0.2863
    135  CB        36.3970   57.7150  109.1300 C.3   113  THR113      0.1794
    136  OG1       35.3770   56.7260  108.9640 O.3   113  THR113     -0.2208
    137  CG2       36.4150   58.2290  110.5650 C.3   113  THR113      0.0378
    138  N         35.5470   55.5210  104.9840 N.3   115  ILE115     -0.1245
    139  CA        35.0860   54.1680  105.2790 C.3   115  ILE115      0.1561
    140  C         35.6380   53.1220  104.3170 C.2   115  ILE115      0.2260
    141  O         35.5260   51.9590  104.5990 O.2   115  ILE115     -0.2867
    142  CB        33.5240   54.0700  105.4370 C.3   115  ILE115      0.0252
    143  CG1       32.7960   54.6340  104.2130 C.3   115  ILE115      0.0019
    144  CG2       33.0940   54.8460  106.6720 C.3   115  ILE115      0.0019
    145  CD1       31.3080   54.2820  104.1550 C.3   115  ILE115      0.0001
    146  N         39.0200   51.2750  105.9930 N.3   118  ARG118     -0.1245
    147  CA        38.9600   50.6560  107.3190 C.3   118  ARG118      0.1563
    148  C         38.6340   49.1620  107.2610 C.2   118  ARG118      0.2260
    149  O         39.1170   48.4830  106.3510 O.2   118  ARG118     -0.2867
    150  CB        37.9660   51.4480  108.1650 C.3   118  ARG118      0.0307
    151  CG        38.4120   52.8960  108.3560 C.3   118  ARG118      0.0489
    152  CD        37.4110   53.6890  109.1550 C.3   118  ARG118      0.2205
    153  NE        37.3340   53.2030  110.5400 N.pl3 118  ARG118     -0.0865
    154  CZ        36.4780   53.6730  111.4290 C.cat 118  ARG118      0.5346
    155  NH1       36.4570   53.1840  112.6550 N.pl3 118  ARG118      0.1354
    156  NH2       35.6300   54.6130  111.0780 N.pl3 118  ARG118      0.1354
    157  N         32.9880   47.7690  106.9030 N.3   122  ARG122     -0.1245
    158  CA        32.6170   49.1780  106.6860 C.3   122  ARG122      0.1563
    159  C         32.6470   49.6710  105.2430 C.2   122  ARG122      0.2260
    160  O         32.2580   50.8040  104.9940 O.2   122  ARG122     -0.2867
    161  CB        33.5170   50.1070  107.4850 C.3   122  ARG122      0.0307
    162  CG        33.3370   50.0290  108.9670 C.3   122  ARG122      0.0489
    163  CD        34.0300   51.1530  109.6930 C.3   122  ARG122      0.2205
    164  NE        34.3530   50.7050  111.0370 N.pl3 122  ARG122     -0.0865
    165  CZ        33.5420   50.7650  112.0960 C.cat 122  ARG122      0.5346
    166  NH1       32.3370   51.3130  112.0270 N.pl3 122  ARG122      0.1354
    167  NH2       33.9640   50.2650  113.2610 N.pl3 122  ARG122      0.1354
@<TRIPOS>BOND
     1   145   143    1
     2   143   142    1
     3   140   141    2
     4   140   139    1
     5   120   122   ar
     6   120   118   ar
     7   138   139    1
     8   160   159    2
     9   122   121   ar
    10   159   158    1
    11   106   105    2
    12   139   142    1
    13   113   114    1
    14   142   144    1
    15   104   105    1
    16   104   103    1
    17   104   107    1
    18   118   117    1
    19   118   119   ar
    20   146   147    1
    21   109   111   ar
    22   109   108   ar
    23   116   115    2
    24   134   133    2
    25   117   114    1
    26   149   148    2
    27   121   119   ar
    28   114   115    1
    29   111   112   ar
    30   107   108    1
    31   158   157    1
    32   158   161    1
    33   133   132    1
    34   115   123   am
    35   108   110   ar
    36   148   147    1
    37   147   150    1
    38    86    87    1
    39   161   162    1
    40   126   125    2
    41    87    88    1
    42    87    90    1
    43   112   110   ar
    44   132   131    1
    45   132   135    1
    46   150   151    1
    47   123   124    1
    48   125   131   am
    49   125   124    1
    50   151   152    1
    51    88    89    2
    52    90    91    1
    53   124   127    1
    54    92    91    2
    55    97    96    2
    56   136   135    1
    57   162   163    1
    58    91    93   am
    59   135   137    1
    60   152   153    1
    61    94    95    1
    62   163   164    1
    63   101   100    2
    64    96    95    1
    65    96    98   am
    66   127   128    1
    67   100    99    1
    68   153   154    2
    69   130   128    1
    70    85    84    1
    71   128   129    1
    72    99    98    1
    73    99   102    1
    74   164   165    2
    75   156   154    1
    76   154   155    1
    77    83    84   ar
    78    83    81   ar
    79    84    82   ar
    80   166   165    1
    81   165   167    1
    82    81    79   ar
    83    22    21    1
    84    82    80   ar
    85    23    21    1
    86     7     6    1
    87     7     1    1
    88    79    80   ar
    89    79    78    1
    90    21    20    1
    91    69    68    2
    92     6     5    1
    93     1     2    1
    94    78    75    1
    95    73    71    1
    96    72    71    1
    97    68    74   am
    98    68    67    1
    99    70    71    1
   100    70    67    1
   101    20    17    1
   102    75    74    1
   103    75    76    1
   104     4     3    2
   105    38    37    1
   106     5     2    1
   107    67    66    1
   108     2     3    1
   109     3     8   am
   110    39    37    1
   111    77    76    2
   112    17    16    1
   113    17    18    1
   114    37    36    1
   115    16    10   am
   116    63    64    1
   117    63    60    1
   118    64    65    1
   119    15    13   am
   120     8     9    1
   121    18    19    2
   122    12     9    1
   123    12    13    1
   124    10     9    1
   125    10    11    2
   126    36    33    1
   127    60    61    1
   128    60    59    1
   129    13    14    2
   130    65    59    1
   131    62    61    2
   132    58    56   ar
   133    59    53   am
   134    33    32    1
   135    33    34    1
   136    55    56    1
   137    55    52    1
   138    56    57   ar
   139    32    26   am
   140    53    54    2
   141    53    52    1
   142    34    35    2
   143    52    51    1
   144    24    25    1
   145    26    25    1
   146    26    27    2
   147    25    28    1
   148    51    42   am
   149    28    29    1
   150    29    30    1
   151    42    43    2
   152    42    41    1
   153    44    41    1
   154    44    45    1
   155    41    40    1
   156    45    46    1
   157    30    31    1
   158    46    47    1
   159    47    48    2
   160    49    48    1
   161    48    50    1
