@<TRIPOS>MOLECULE
tmp/2c53A00.pdb
 121 121 0 0 0
SMALL
GASTEIGER

@<TRIPOS>ATOM
      1  N         15.3470    4.6830   15.2620 N.3    70  GLY70      -0.1210
      2  CA        16.0370    5.7710   15.9420 C.3    70  GLY70       0.1956
      3  C         16.6380    6.6930   14.8860 C.2    70  GLY70       0.2612
      4  O         16.5110    6.4640   13.6800 O.2    70  GLY70      -0.2717
      5  N         17.3000    7.7570   15.3160 N.am   71  GLN71      -0.1965
      6  CA        17.9210    8.6800   14.3660 C.3    71  GLN71       0.1733
      7  C         19.4600    8.4920   14.3300 C.2    71  GLN71       0.2616
      8  O         19.9670    7.7740   13.4710 O.2    71  GLN71      -0.2715
      9  CB        17.5620   10.1250   14.7290 C.3    71  GLN71       0.0408
     10  CG        17.5150   11.0130   13.4810 C.3    71  GLN71       0.0908
     11  CD        16.9760   12.4060   13.7580 C.2    71  GLN71       0.2608
     12  OE1       16.1650   12.6170   14.6780 O.2    71  GLN71      -0.2717
     13  NE2       17.4100   13.3670   12.9500 N.am   71  GLN71      -0.0878
     14  N         20.1750    9.0530   15.3040 N.am   72  ASN72      -0.1959
     15  CA        21.6470    8.9450   15.3430 C.3    72  ASN72       0.1804
     16  C         22.1390    8.3200   16.6180 C.2    72  ASN72       0.2463
     17  O         21.5100    8.4540   17.6740 O.2    72  ASN72      -0.2730
     18  CB        22.3160   10.3490   15.2840 C.3    72  ASN72       0.1195
     19  CG        22.0370   11.0940   13.9990 C.2    72  ASN72       0.2630
     20  OD1       22.6940   10.8580   12.9720 O.2    72  ASN72      -0.2716
     21  ND2       21.0350   12.0000   14.0300 N.am   72  ASN72      -0.0877
     22  N         23.3060    7.6440   16.5570 N.am   73  PRO73      -0.2716
     23  CA        23.8310    7.0390   17.7920 C.3    73  PRO73       0.1536
     24  C         24.3020    8.1110   18.7890 C.2    73  PRO73       0.2598
     25  O         24.6750    9.2270   18.4000 O.2    73  PRO73      -0.2715
     26  CB        25.0640    6.2400   17.3420 C.3    73  PRO73       0.0310
     27  CG        25.1440    6.3870   15.8120 C.3    73  PRO73       0.0237
     28  CD        24.2160    7.5070   15.4160 C.3    73  PRO73       0.0939
     29  N         24.3580    7.7340   20.0650 N.am   74  TYR74      -0.1974
     30  CA        24.9240    8.6220   21.1030 C.3    74  TYR74       0.1639
     31  C         26.3440    8.9360   20.6890 C.2    74  TYR74       0.2290
     32  O         27.0200    8.0840   20.1330 O.2    74  TYR74      -0.2864
     33  CB        24.9220    7.8710   22.4380 C.3    74  TYR74       0.0560
     34  CG        23.5230    7.5450   22.8590 C.ar   74  TYR74      -0.0198
     35  CD1       22.6460    8.5540   23.2260 C.ar   74  TYR74      -0.0009
     36  CD2       23.0970    6.2260   22.9810 C.ar   74  TYR74      -0.0009
     37  CE1       21.3640    8.2610   23.7310 C.ar   74  TYR74       0.0417
     38  CE2       21.8190    5.9220   23.4980 C.ar   74  TYR74       0.0417
     39  CZ        20.9770    6.9220   23.8620 C.ar   74  TYR74       0.1957
     40  OH        19.7350    6.6400   24.3300 O.3    74  TYR74      -0.2866
     41  N         22.6560   -0.4820   18.8350 N.3    83  LEU83      -0.1231
     42  CA        21.1700   -0.5380   18.8910 C.3    83  LEU83       0.1693
     43  C         20.6050    0.8390   19.1290 C.2    83  LEU83       0.2592
     44  O         21.1710    1.6150   19.9380 O.2    83  LEU83      -0.2718
     45  CB        20.7390   -1.4000   20.0660 C.3    83  LEU83       0.0284
     46  CG        21.2480   -2.8390   20.1210 C.3    83  LEU83       0.0019
     47  CD1       20.6450   -3.5120   21.3440 C.3    83  LEU83       0.0001
     48  CD2       20.7880   -3.5880   18.8860 C.3    83  LEU83       0.0001
     49  N         19.4990    1.1780   18.4650 N.am   84  ALA84      -0.1966
     50  CA        18.8570    2.4550   18.7270 C.3    84  ALA84       0.1728
     51  C         18.4790    2.5520   20.2300 C.2    84  ALA84       0.2616
     52  O         18.0220    1.5730   20.7950 O.2    84  ALA84      -0.2715
     53  CB        17.5740    2.5730   17.8860 C.3    84  ALA84       0.0334
     54  N         18.6750    3.7300   20.8320 N.am   85  PHE85      -0.1974
     55  CA        18.2900    4.0870   22.2030 C.3    85  PHE85       0.1639
     56  C         19.0780    3.4730   23.3420 C.2    85  PHE85       0.2290
     57  O         19.3180    4.1180   24.3650 O.2    85  PHE85      -0.2864
     58  CB        16.7820    3.8060   22.4670 C.3    85  PHE85       0.0560
     59  CG        15.8510    4.6380   21.6320 C.ar   85  PHE85      -0.0200
     60  CD1       15.6790    5.9870   21.9140 C.ar   85  PHE85      -0.0042
     61  CD2       15.2660    4.1020   20.4880 C.ar   85  PHE85      -0.0042
     62  CE1       14.9490    6.8320   21.0640 C.ar   85  PHE85      -0.0003
     63  CE2       14.5170    4.9310   19.6080 C.ar   85  PHE85      -0.0003
     64  CZ        14.3650    6.2990   19.8910 C.ar   85  PHE85      -0.0000
     65  N         20.1440    7.8530   29.4310 N.3    94  PRO94      -0.2103
     66  CA        20.1400    9.2700   29.0130 C.3    94  PRO94       0.1489
     67  C         18.6680    9.6660   28.9720 C.2    94  PRO94       0.2418
     68  O         17.7800    8.8130   28.9300 O.2    94  PRO94      -0.2734
     69  CB        20.7520    9.2350   27.6050 C.3    94  PRO94       0.0282
     70  CG        21.6950    8.0460   27.7060 C.3    94  PRO94       0.0208
     71  CD        20.8890    7.0260   28.4700 C.3    94  PRO94       0.0893
     72  N         18.3880   10.9630   28.9500 N.am   95  PRO95      -0.2718
     73  CA        16.9940   11.4090   28.9510 C.3    95  PRO95       0.1535
     74  C         15.9690   10.7410   28.0330 C.2    95  PRO95       0.2599
     75  O         14.8870   10.3650   28.4920 O.2    95  PRO95      -0.2715
     76  CB        17.0960   12.9200   28.6900 C.3    95  PRO95       0.0310
     77  CG        18.4260   13.2850   29.3710 C.3    95  PRO95       0.0237
     78  CD        19.3340   12.1010   28.9630 C.3    95  PRO95       0.0939
     79  N         16.2770   10.5760   26.7540 N.am   96  SER96      -0.1950
     80  CA        15.2210   10.0300   25.8960 C.3    96  SER96       0.1924
     81  C         14.9430    8.5750   26.2650 C.2    96  SER96       0.2314
     82  O         13.8040    8.1440   26.2390 O.2    96  SER96      -0.2863
     83  CB        15.6290   10.1510   24.4280 C.3    96  SER96       0.2116
     84  OG        16.6620    9.2490   24.1670 O.3    96  SER96      -0.2180
     85  N         18.7780    2.5350   14.1850 N.3   131  ASN131     -0.1240
     86  CA        18.9340    3.9470   13.8650 C.3   131  ASN131      0.1653
     87  C         19.0230    4.0580   12.3230 C.2   131  ASN131      0.2266
     88  O         19.5240    3.1220   11.6850 O.2   131  ASN131     -0.2867
     89  CB        20.2660    4.4590   14.4240 C.3   131  ASN131      0.1155
     90  CG        20.2150    4.7170   15.9110 C.2   131  ASN131      0.2627
     91  OD1       19.2320    5.2480   16.3960 O.2   131  ASN131     -0.2716
     92  ND2       21.3220    4.4080   16.6330 N.am  131  ASN131     -0.0877
     93  N          8.3080   12.3180   19.7310 N.3   194  ASN194     -0.1240
     94  CA         9.6760   11.8800   20.0640 C.3   194  ASN194      0.1653
     95  C          9.9310   11.7460   21.5680 C.2   194  ASN194      0.2266
     96  O          9.4730   12.5920   22.3450 O.2   194  ASN194     -0.2867
     97  CB        10.6420   12.9210   19.4390 C.3   194  ASN194      0.1155
     98  CG        12.0300   12.3690   19.2000 C.2   194  ASN194      0.2627
     99  OD1       12.6060   11.7240   20.0640 O.2   194  ASN194     -0.2716
    100  ND2       12.5790   12.6320   18.0020 N.am  194  ASN194     -0.0877
    101  N         12.5730   12.2300   22.8660 N.3   196  SER196     -0.1203
    102  CA        13.6450   13.1990   23.0920 C.3   196  SER196      0.2005
    103  C         13.2830   14.2110   24.1520 C.2   196  SER196      0.2461
    104  O         12.1440   14.6980   24.2190 O.2   196  SER196     -0.2732
    105  CB        13.9600   13.9730   21.8150 C.3   196  SER196      0.2103
    106  OG        14.7750   15.0830   22.1190 O.3   196  SER196     -0.2182
    107  N         14.2830   14.5980   24.9670 N.am  197  PRO197     -0.2717
    108  CA        14.0040   15.5790   26.0120 C.3   197  PRO197      0.1535
    109  C         13.5700   16.9130   25.3980 C.2   197  PRO197      0.2598
    110  O         12.9880   17.7470   26.0910 O.2   197  PRO197     -0.2715
    111  CB        15.3250   15.6760   26.7770 C.3   197  PRO197      0.0310
    112  CG        16.4040   15.2740   25.7040 C.3   197  PRO197      0.0237
    113  CD        15.6700   14.1050   25.0280 C.3   197  PRO197      0.0939
    114  N         13.8170   17.1040   24.0990 N.am  198  LEU198     -0.1978
    115  CA        13.4270   18.3740   23.4430 C.3   198  LEU198      0.1596
    116  C         11.9450   18.4100   23.1720 C.2   198  LEU198      0.2287
    117  O         11.3650   19.4820   22.9590 O.2   198  LEU198     -0.2864
    118  CB        14.1620   18.5820   22.1070 C.3   198  LEU198      0.0297
    119  CG        15.6330   19.0280   22.0860 C.3   198  LEU198      0.0022
    120  CD1       16.5460   17.9820   22.6720 C.3   198  LEU198      0.0001
    121  CD2       16.0570   19.3070   20.6610 C.3   198  LEU198      0.0001
@<TRIPOS>BOND
     1    88    87    2
     2    87    86    1
     3    13    11   am
     4    20    19    2
     5     8     7    2
     6    10    11    1
     7    10     9    1
     8     4     3    2
     9    11    12    2
    10    86    85    1
    11    86    89    1
    12    19    21   am
    13    19    18    1
    14     7     6    1
    15     7    14   am
    16     6     9    1
    17     6     5    1
    18    89    90    1
    19     3     5   am
    20     3     2    1
    21     1     2    1
    22    18    15    1
    23    14    15    1
    24    15    16    1
    25    28    27    1
    26    28    22    1
    27    27    26    1
    28    90    91    2
    29    90    92   am
    30    22    16   am
    31    22    23    1
    32    16    17    2
    33    26    23    1
    34    23    24    1
    35    53    50    1
    36   100    98   am
    37    25    24    2
    38    49    50    1
    39    49    43   am
    40    50    51    1
    41    24    29   am
    42    41    42    1
    43    48    46    1
    44    42    43    1
    45    42    45    1
    46    43    44    2
    47    98    97    1
    48    98    99    2
    49    97    94    1
    50    63    64   ar
    51    63    61   ar
    52    93    94    1
    53    64    62   ar
    54    94    95    1
    55    29    30    1
    56    45    46    1
    57    46    47    1
    58    32    31    2
    59    51    52    2
    60    51    54   am
    61    61    59   ar
    62   121   119    1
    63    31    30    1
    64    54    55    1
    65    62    60   ar
    66    30    33    1
    67    95    96    2
    68    59    60   ar
    69    59    58    1
    70   105   106    1
    71   105   102    1
    72   119   118    1
    73   119   120    1
    74   118   115    1
    75    55    58    1
    76    55    56    1
    77    33    34    1
    78    34    36   ar
    79    34    35   ar
    80   101   102    1
    81   117   116    2
    82    36    38   ar
    83   102   103    1
    84   116   115    1
    85    35    37   ar
    86    56    57    2
    87   115   114    1
    88    38    39   ar
    89    37    39   ar
    90    39    40    1
    91   114   109   am
    92   103   104    2
    93   103   107   am
    94    84    83    1
    95    83    80    1
    96   107   113    1
    97   107   108    1
    98   113   112    1
    99   109   108    1
   100   109   110    2
   101   112   111    1
   102    80    81    1
   103    80    79    1
   104   108   111    1
   105    82    81    2
   106    79    74   am
   107    69    70    1
   108    69    66    1
   109    70    71    1
   110    74    75    2
   111    74    73    1
   112    71    65    1
   113    76    73    1
   114    76    77    1
   115    68    67    2
   116    72    73    1
   117    72    78    1
   118    72    67   am
   119    78    77    1
   120    67    66    1
   121    66    65    1
