@<TRIPOS>MOLECULE
tmp/2c56A00.pdb
 95 93 0 0 0
SMALL
GASTEIGER

@<TRIPOS>ATOM
      1  N         15.9550    7.1220   29.2210 N.3    98  ARG98      -0.1231
      2  CA        15.2810    7.2620   30.5070 C.3    98  ARG98       0.1694
      3  C         13.7910    7.4430   30.2300 C.2    98  ARG98       0.2592
      4  O         12.9520    6.8440   30.8900 O.2    98  ARG98      -0.2718
      5  CB        15.8000    8.5030   31.2300 C.3    98  ARG98       0.0321
      6  CG        14.9930    8.9320   32.4840 C.3    98  ARG98       0.0489
      7  CD        15.3170   10.4070   32.8110 C.3    98  ARG98       0.2205
      8  NE        14.6750   11.2650   31.8220 N.pl3  98  ARG98      -0.0865
      9  CZ        15.0760   12.4930   31.5130 C.cat  98  ARG98       0.5346
     10  NH1       16.1350   13.0360   32.1210 N.pl3  98  ARG98       0.1354
     11  NH2       14.4410   13.1560   30.5610 N.pl3  98  ARG98       0.1354
     12  N         13.4690    8.3080   29.2920 N.am   99  ASN99      -0.1974
     13  CA        12.0670    8.5190   28.8970 C.3    99  ASN99       0.1688
     14  C         11.4020    7.2290   28.3590 C.2    99  ASN99       0.2292
     15  O         10.2600    6.9210   28.6930 O.2    99  ASN99      -0.2864
     16  CB        11.9830    9.6160   27.8330 C.3    99  ASN99       0.1181
     17  CG        12.2630   10.9860   28.4180 C.2    99  ASN99       0.2629
     18  OD1       12.2960   11.1390   29.6540 O.2    99  ASN99      -0.2716
     19  ND2       12.4300   11.9890   27.5580 N.am   99  ASN99      -0.0877
     20  N         10.7680    4.8650   31.1850 N.3   102  ALA102     -0.1245
     21  CA         9.7120    5.3450   32.0750 C.3   102  ALA102      0.1562
     22  C          8.3690    4.9710   31.4820 C.2   102  ALA102      0.2260
     23  O          7.5140    4.4460   32.1970 O.2   102  ALA102     -0.2867
     24  CB         9.8390    6.8850   32.3140 C.3   102  ALA102      0.0290
     25  N          5.5010    2.6590   33.0400 N.3   106  ASN106     -0.1240
     26  CA         4.1340    3.1060   33.2270 C.3   106  ASN106      0.1653
     27  C          3.1590    2.1170   32.6030 C.2   106  ASN106      0.2266
     28  O          2.0370    1.9840   33.0760 O.2   106  ASN106     -0.2867
     29  CB         3.8640    4.4930   32.6130 C.3   106  ASN106      0.1155
     30  CG         4.5250    5.6280   33.3950 C.2   106  ASN106      0.2627
     31  OD1        4.9500    5.4530   34.5460 O.2   106  ASN106     -0.2716
     32  ND2        4.6340    6.8060   32.7510 N.am  106  ASN106     -0.0877
     33  N          8.5360   12.2570   19.8950 N.3   194  ASN194     -0.1226
     34  CA         9.9040   11.8270   20.1780 C.3   194  ASN194      0.1770
     35  C         10.2520   11.6260   21.6530 C.2   194  ASN194      0.2439
     36  O          9.8580   12.4290   22.4730 O.2   194  ASN194     -0.2733
     37  CB        10.8540   12.8880   19.5900 C.3   194  ASN194      0.1168
     38  CG        12.1860   12.3010   19.1910 C.2   194  ASN194      0.2627
     39  OD1       12.7860   11.5600   19.9560 O.2   194  ASN194     -0.2716
     40  ND2       12.6530   12.6360   18.0010 N.am  194  ASN194     -0.0877
     41  N         10.9710   10.5280   22.0180 N.am  195  PRO195     -0.2718
     42  CA        11.3410   10.3580   23.4480 C.3   195  PRO195      0.1535
     43  C         12.5100   11.3350   23.7480 C.2   195  PRO195      0.2599
     44  O         12.9300   11.5160   24.9110 O.2   195  PRO195     -0.2715
     45  CB        11.7810    8.8870   23.5390 C.3   195  PRO195      0.0310
     46  CG        12.3820    8.6190   22.1430 C.3   195  PRO195      0.0237
     47  CD        11.3170    9.3150   21.2320 C.3   195  PRO195      0.0939
     48  N         13.0390   11.9730   22.6940 N.am  196  SER196     -0.1937
     49  CA        14.1290   12.9420   22.8510 C.3   196  SER196      0.2040
     50  C         13.8180   13.9880   23.9360 C.2   196  SER196      0.2485
     51  O         12.6760   14.4390   24.0740 O.2   196  SER196     -0.2729
     52  CB        14.3740   13.6780   21.5240 C.3   196  SER196      0.2129
     53  OG        15.1390   14.8480   21.7120 O.3   196  SER196     -0.2179
     54  N         14.8370   14.4000   24.7200 N.am  197  PRO197     -0.2726
     55  CA        14.5080   15.4050   25.7390 C.3   197  PRO197      0.1402
     56  C         14.0890   16.7590   25.1790 C.2   197  PRO197      0.2269
     57  O         13.5060   17.5720   25.9110 O.2   197  PRO197     -0.2865
     58  CB        15.7770   15.4740   26.5830 C.3   197  PRO197      0.0296
     59  CG        16.8610   15.1590   25.6360 C.3   197  PRO197      0.0237
     60  CD        16.2620   14.0360   24.7850 C.3   197  PRO197      0.0939
     61  N         11.7590   17.2370   23.0910 N.3   199  SER199     -0.1217
     62  CA        10.3090   17.2380   22.9150 C.3   199  SER199      0.1889
     63  C          9.6420   17.9070   24.1280 C.2   199  SER199      0.2288
     64  O         10.0310   17.6420   25.2660 O.2   199  SER199     -0.2866
     65  CB         9.7740   15.7960   22.8580 C.3   199  SER199      0.2089
     66  OG         8.3490   15.7860   22.7450 O.3   199  SER199     -0.2183
     67  N          6.4890   17.4630   24.3760 N.3   201  VAL201     -0.1231
     68  CA         5.3670   16.5260   24.5190 C.3   201  VAL201      0.1678
     69  C          5.8880   15.3510   25.3670 C.2   201  VAL201      0.2434
     70  O          6.8830   14.6950   25.0220 O.2   201  VAL201     -0.2733
     71  CB         4.8510   15.9930   23.1630 C.3   201  VAL201      0.0265
     72  CG1        3.6670   15.0320   23.4080 C.3   201  VAL201      0.0020
     73  CG2        4.3920   17.1470   22.2840 C.3   201  VAL201      0.0020
     74  N          5.2400   15.0890   26.5000 N.am  202  PRO202     -0.2718
     75  CA         5.6780   13.9930   27.3730 C.3   202  PRO202      0.1535
     76  C          5.6900   12.6160   26.6780 C.2   202  PRO202      0.2599
     77  O          4.7100   12.2230   26.0950 O.2   202  PRO202     -0.2715
     78  CB         4.6530   14.0110   28.5280 C.3   202  PRO202      0.0310
     79  CG         4.0880   15.4430   28.5330 C.3   202  PRO202      0.0237
     80  CD         4.0620   15.8030   27.0470 C.3   202  PRO202      0.0939
     81  N          6.7890   11.8840   26.7740 N.am  203  PHE203     -0.1960
     82  CA         6.8480   10.5490   26.1820 C.3   203  PHE203      0.1771
     83  C          6.3090    9.5010   27.1410 C.2   203  PHE203      0.2620
     84  O          5.9810    8.3670   26.7410 O.2   203  PHE203     -0.2715
     85  CB         8.2810   10.1510   25.8490 C.3   203  PHE203      0.0574
     86  CG         8.3680    8.8810   25.0450 C.ar  203  PHE203     -0.0200
     87  CD1        8.1150    8.8980   23.6780 C.ar  203  PHE203     -0.0042
     88  CD2        8.6750    7.6640   25.6670 C.ar  203  PHE203     -0.0042
     89  CE1        8.1700    7.7130   22.9070 C.ar  203  PHE203     -0.0003
     90  CE2        8.7260    6.4550   24.9040 C.ar  203  PHE203     -0.0003
     91  CZ         8.4720    6.4940   23.5200 C.ar  203  PHE203     -0.0000
     92  N          6.2050    9.8780   28.4110 N.am  204  GLY204     -0.1954
     93  CA         5.7590    8.9460   29.4360 C.3   204  GLY204      0.1869
     94  C          4.4120    8.2840   29.2700 C.2   204  GLY204      0.2309
     95  O          4.1650    7.2320   29.8680 O.2   204  GLY204     -0.2863
@<TRIPOS>BOND
     1    40    38   am
     2    38    37    1
     3    38    39    2
     4    37    34    1
     5    33    34    1
     6    34    35    1
     7    47    41    1
     8    47    46    1
     9    52    53    1
    10    52    49    1
    11    35    41   am
    12    35    36    2
    13    41    42    1
    14    46    45    1
    15    73    71    1
    16    48    49    1
    17    48    43   am
    18    66    65    1
    19    49    50    1
    20    65    62    1
    21    89    91   ar
    22    89    87   ar
    23    62    61    1
    24    62    63    1
    25    71    72    1
    26    71    68    1
    27    42    45    1
    28    42    43    1
    29    91    90   ar
    30    87    86   ar
    31    43    44    2
    32    50    51    2
    33    50    54   am
    34    63    64    2
    35    67    68    1
    36    68    69    1
    37    54    60    1
    38    54    55    1
    39    60    59    1
    40    90    88   ar
    41    70    69    2
    42    86    88   ar
    43    86    85    1
    44    56    55    1
    45    56    57    2
    46    69    74   am
    47    59    58    1
    48    55    58    1
    49    85    82    1
    50    77    76    2
    51    82    81    1
    52    82    83    1
    53    74    80    1
    54    74    75    1
    55    76    81   am
    56    76    75    1
    57    84    83    2
    58    80    79    1
    59    83    92   am
    60    75    78    1
    61    19    17   am
    62    16    17    1
    63    16    13    1
    64    14    15    2
    65    14    13    1
    66    92    93    1
    67    17    18    2
    68    78    79    1
    69    13    12    1
    70     1     2    1
    71    94    93    1
    72    94    95    2
    73    12     3   am
    74     3     2    1
    75     3     4    2
    76     2     5    1
    77    11     9    1
    78    20    21    1
    79     5     6    1
    80    22    21    1
    81    22    23    2
    82     9     8    2
    83     9    10    1
    84     8     7    1
    85    21    24    1
    86     6     7    1
    87    27    28    2
    88    27    26    1
    89    29    26    1
    90    29    30    1
    91    32    30   am
    92    25    26    1
    93    30    31    2
