@<TRIPOS>MOLECULE
tmp/2c57J00.pdb
 105 100 0 0 0
SMALL
GASTEIGER

@<TRIPOS>ATOM
      1  N         -9.1140   14.2510  112.5400 N.3    22  PRO22      -0.2102
      2  CA        -8.9800   12.8630  112.1300 C.3    22  PRO22       0.1504
      3  C         -7.5860   12.4160  112.2830 C.2    22  PRO22       0.2576
      4  O         -6.6880   13.1410  112.0170 O.2    22  PRO22      -0.2718
      5  CB        -9.2850   12.8890  110.6540 C.3    22  PRO22       0.0282
      6  CG        -9.5800   14.3680  110.3160 C.3    22  PRO22       0.0208
      7  CD        -9.0680   15.1930  111.4030 C.3    22  PRO22       0.0893
      8  N         -7.4150   11.1920  112.7190 N.am   23  ASN23      -0.1961
      9  CA        -6.1160   10.6170  112.9240 C.3    23  ASN23       0.1819
     10  C         -5.3770   10.9700  114.1830 C.2    23  ASN23       0.2621
     11  O         -4.5060   10.2050  114.5900 O.2    23  ASN23      -0.2715
     12  CB        -5.2380   10.8800  111.7450 C.3    23  ASN23       0.1195
     13  CG        -5.4500    9.8670  110.6250 C.2    23  ASN23       0.2630
     14  OD1       -6.0100    8.7940  110.8280 O.2    23  ASN23      -0.2716
     15  ND2       -4.9970   10.2100  109.4300 N.am   23  ASN23      -0.0877
     16  N         -5.7200   12.0970  114.8170 N.am   24  LEU24      -0.1977
     17  CA        -5.2120   12.4740  116.1660 C.3    24  LEU24       0.1596
     18  C         -5.3900   11.4140  117.2940 C.2    24  LEU24       0.2287
     19  O         -4.5800   11.3080  118.2360 O.2    24  LEU24      -0.2864
     20  CB        -5.8580   13.7810  116.5450 C.3    24  LEU24       0.0297
     21  CG        -5.2150   14.8780  115.7100 C.3    24  LEU24       0.0022
     22  CD1       -6.0090   16.1530  115.8360 C.3    24  LEU24       0.0001
     23  CD2       -3.7820   15.0630  116.2330 C.3    24  LEU24       0.0001
     24  N         -8.3420   21.2500  116.7220 N.3    82  ASN82      -0.1240
     25  CA        -7.3170   20.8230  115.8160 C.3    82  ASN82       0.1653
     26  C         -7.9630   19.9690  114.7440 C.2    82  ASN82       0.2266
     27  O         -8.0350   18.7480  114.8490 O.2    82  ASN82      -0.2867
     28  CB        -6.2200   20.0810  116.5380 C.3    82  ASN82       0.1155
     29  CG        -5.1730   19.4820  115.5880 C.2    82  ASN82       0.2627
     30  OD1       -5.2300   19.5800  114.3790 O.2    82  ASN82      -0.2716
     31  ND2       -4.2270   18.8240  116.1710 N.am   82  ASN82      -0.0877
     32  N         -7.0820   18.6590  112.2440 N.3    84  GLY84      -0.1210
     33  CA        -6.1720   17.7490  111.4790 C.3    84  GLY84       0.1956
     34  C         -6.1410   18.0950  109.9870 C.2    84  GLY84       0.2611
     35  O         -6.3770   19.2590  109.5950 O.2    84  GLY84      -0.2717
     36  N         -5.9330   17.0870  109.1430 N.am   85  ALA85      -0.1979
     37  CA        -5.8650   17.3510  107.7180 C.3    85  ALA85       0.1597
     38  C         -7.0770   18.1050  107.1460 C.2    85  ALA85       0.2287
     39  O         -6.9380   18.8130  106.1460 O.2    85  ALA85      -0.2864
     40  CB        -5.5540   16.1020  106.9580 C.3    85  ALA85       0.0319
     41  N         -6.8190   21.9570  106.0060 N.3    88  HIS88      -0.1241
     42  CA        -6.3690   22.3450  104.6870 C.3    88  HIS88       0.1621
     43  C         -7.4240   22.3420  103.6130 C.2    88  HIS88       0.2264
     44  O         -7.3320   23.1210  102.6950 O.2    88  HIS88      -0.2867
     45  CB        -5.2100   21.4610  104.2510 C.3    88  HIS88       0.0745
     46  CG        -4.2050   21.2350  105.3360 C.ar   88  HIS88       0.0817
     47  ND1       -3.4330   22.2470  105.8700 N.ar   88  HIS88      -0.2268
     48  CD2       -3.8730   20.1050  106.0040 C.ar   88  HIS88       0.1154
     49  CE1       -2.6790   21.7400  106.8320 C.ar   88  HIS88       0.1986
     50  NE2       -2.9190   20.4390  106.9200 N.ar   88  HIS88      -0.2212
     51  N         -2.3290   23.1940  116.3010 N.3   108  HIS108     -0.1226
     52  CA        -1.7250   22.1450  115.4720 C.3   108  HIS108      0.1752
     53  C         -0.4810   21.6830  116.1530 C.2   108  HIS108      0.2596
     54  O          0.3610   22.4930  116.5400 O.2   108  HIS108     -0.2718
     55  CB        -1.3280   22.6250  114.0660 C.3   108  HIS108      0.0759
     56  CG        -2.4680   23.1060  113.2250 C.ar  108  HIS108      0.0818
     57  ND1       -3.3150   22.2480  112.5440 N.ar  108  HIS108     -0.2268
     58  CD2       -2.8590   24.3660  112.8830 C.ar  108  HIS108      0.1154
     59  CE1       -4.1850   22.9570  111.8350 C.ar  108  HIS108      0.1986
     60  NE2       -3.9240   24.2440  112.0120 N.ar  108  HIS108     -0.2212
     61  N         -0.3180   20.3960  116.2850 N.am  109  LEU109     -0.1966
     62  CA         0.8990   19.9840  116.8410 C.3   109  LEU109      0.1728
     63  C          2.1080   20.4560  116.0000 C.2   109  LEU109      0.2616
     64  O          3.0460   21.0550  116.5390 O.2   109  LEU109     -0.2715
     65  CB         0.8780   18.5010  117.0280 C.3   109  LEU109      0.0311
     66  CG        -0.2580   17.9020  117.8360 C.3   109  LEU109      0.0022
     67  CD1       -0.2000   16.4680  117.6190 C.3   109  LEU109      0.0001
     68  CD2       -0.1520   18.0650  119.3380 C.3   109  LEU109      0.0001
     69  N          2.0840   20.2120  114.6850 N.am  110  THR110     -0.1951
     70  CA         3.2810   20.4380  113.8510 C.3   110  THR110      0.1897
     71  C          3.2780   21.8910  113.4640 C.2   110  THR110      0.2313
     72  O          2.2950   22.5720  113.7620 O.2   110  THR110     -0.2863
     73  CB         3.2300   19.6260  112.5690 C.3   110  THR110      0.1794
     74  OG1        1.9120   19.6530  112.1100 O.3   110  THR110     -0.2208
     75  CG2        3.5140   18.2270  112.8260 C.3   110  THR110      0.0378
     76  N          2.6750   23.7800  110.4360 N.3   112  ILE112     -0.1245
     77  CA         2.2280   23.5170  109.0780 C.3   112  ILE112      0.1561
     78  C          2.8230   24.4250  108.0310 C.2   112  ILE112      0.2260
     79  O          2.8180   24.0540  106.8520 O.2   112  ILE112     -0.2867
     80  CB         0.7640   23.5980  108.9560 C.3   112  ILE112      0.0252
     81  CG1        0.3130   24.8810  109.5220 C.3   112  ILE112      0.0019
     82  CG2        0.1170   22.5490  109.7640 C.3   112  ILE112      0.0019
     83  CD1       -0.6820   25.5090  108.6950 C.3   112  ILE112      0.0001
     84  N          5.8410   22.4870  106.4590 N.3   115  ARG115     -0.1245
     85  CA         5.6270   21.1670  105.8400 C.3   115  ARG115      0.1563
     86  C          5.2550   21.2840  104.3730 C.2   115  ARG115      0.2260
     87  O          5.5500   22.3260  103.7530 O.2   115  ARG115     -0.2867
     88  CB         4.6290   20.3320  106.6140 C.3   115  ARG115      0.0307
     89  CG         5.1580   20.0770  107.9540 C.3   115  ARG115      0.0489
     90  CD         4.2020   19.4020  108.8360 C.3   115  ARG115      0.2205
     91  NE         3.9530   18.0670  108.3340 N.pl3 115  ARG115     -0.0865
     92  CZ         2.9930   17.2660  108.7940 C.cat 115  ARG115      0.5346
     93  NH1        2.1730   17.6300  109.7830 N.pl3 115  ARG115      0.1354
     94  NH2        2.8490   16.0790  108.2560 N.pl3 115  ARG115      0.1354
     95  N         -0.0530   21.7930  103.0100 N.3   119  ARG119     -0.1245
     96  CA        -0.4720   21.9120  104.4260 C.3   119  ARG119      0.1563
     97  C         -0.4700   23.3380  104.9230 C.2   119  ARG119      0.2260
     98  O         -1.0100   23.6550  106.0030 O.2   119  ARG119     -0.2867
     99  CB         0.4100   21.0600  105.3370 C.3   119  ARG119      0.0307
    100  CG         0.1020   19.5460  105.2170 C.3   119  ARG119      0.0489
    101  CD         0.9370   18.8050  106.2050 C.3   119  ARG119      0.2205
    102  NE         1.0200   17.4170  105.8130 N.pl3 119  ARG119     -0.0865
    103  CZ         0.1510   16.4830  106.1440 C.cat 119  ARG119      0.5346
    104  NH1       -0.9140   16.7230  106.8510 N.pl3 119  ARG119      0.1354
    105  NH2        0.3710   15.2820  105.7720 N.pl3 119  ARG119      0.1354
@<TRIPOS>BOND
     1    44    43    2
     2    95    96    1
     3    43    42    1
     4    87    86    2
     5    45    42    1
     6    45    46    1
     7    86    85    1
     8    96    97    1
     9    96    99    1
    10    42    41    1
    11    97    98    2
    12   100    99    1
    13   100   101    1
    14    46    47   ar
    15    46    48   ar
    16   105   103    1
    17   102   103    2
    18   102   101    1
    19    85    84    1
    20    85    88    1
    21    47    49   ar
    22    48    50   ar
    23   103   104    1
    24    39    38    2
    25    88    89    1
    26    49    50   ar
    27    79    78    2
    28    40    37    1
    29    38    37    1
    30    37    36    1
    31    89    90    1
    32    78    77    1
    33    94    92    1
    34    91    92    2
    35    91    90    1
    36    83    81    1
    37    92    93    1
    38    80    77    1
    39    80    81    1
    40    80    82    1
    41    77    76    1
    42    36    34   am
    43    15    13   am
    44    35    34    2
    45    34    33    1
    46     6     5    1
    47     6     7    1
    48    13    14    2
    49    13    12    1
    50     5     2    1
    51     7     1    1
    52    33    32    1
    53    12     9    1
    54    59    60   ar
    55    59    57   ar
    56    60    58   ar
    57     4     3    2
    58    74    73    1
    59     2     3    1
    60     2     1    1
    61     3     8   am
    62    57    56   ar
    63    73    75    1
    64    73    70    1
    65     8     9    1
    66    58    56   ar
    67     9    10    1
    68    56    55    1
    69    71    72    2
    70    71    70    1
    71    70    69    1
    72    55    52    1
    73    10    11    2
    74    10    16   am
    75    30    29    2
    76    69    63   am
    77    26    27    2
    78    26    25    1
    79    16    17    1
    80    52    53    1
    81    52    51    1
    82    29    31   am
    83    29    28    1
    84    21    22    1
    85    21    23    1
    86    21    20    1
    87    25    28    1
    88    25    24    1
    89    63    64    2
    90    63    62    1
    91    53    61   am
    92    53    54    2
    93    17    20    1
    94    17    18    1
    95    61    62    1
    96    62    65    1
    97    65    66    1
    98    18    19    2
    99    67    66    1
   100    66    68    1
