@<TRIPOS>MOLECULE
tmp/2c58A01.pdb
 115 115 0 0 0
SMALL
GASTEIGER

@<TRIPOS>ATOM
      1  N         -7.1810   65.1190   66.1610 N.3    67  TYR67      -0.1241
      2  CA        -6.8100   65.3100   67.5540 C.3    67  TYR67       0.1605
      3  C         -6.2220   66.7160   67.5970 C.2    67  TYR67       0.2264
      4  O         -5.5830   67.1460   66.6370 O.2    67  TYR67      -0.2867
      5  CB        -5.7310   64.3010   67.9380 C.3    67  TYR67       0.0534
      6  CG        -5.0520   64.5630   69.2650 C.ar   67  TYR67      -0.0201
      7  CD1       -5.6650   64.2150   70.4670 C.ar   67  TYR67      -0.0009
      8  CD2       -3.7880   65.1520   69.3150 C.ar   67  TYR67      -0.0009
      9  CE1       -5.0360   64.4410   71.6900 C.ar   67  TYR67       0.0417
     10  CE2       -3.1500   65.3840   70.5290 C.ar   67  TYR67       0.0417
     11  CZ        -3.7780   65.0250   71.7130 C.ar   67  TYR67       0.1957
     12  OH        -3.1460   65.2390   72.9170 O.3    67  TYR67      -0.2866
     13  N         -3.7990   69.4240   69.8100 N.3    69  ASP69      -0.1239
     14  CA        -2.8010   69.5720   70.8590 C.3    69  ASP69       0.1674
     15  C         -3.2080   70.6460   71.8650 C.2    69  ASP69       0.2266
     16  O         -3.3200   71.8190   71.5230 O.2    69  ASP69      -0.2867
     17  CB        -1.4580   69.9330   70.2270 C.3    69  ASP69       0.1410
     18  CG        -0.3300   70.0150   71.2380 C.2    69  ASP69       0.3668
     19  OD1        0.7930   70.3640   70.8230 O.co2  69  ASP69      -0.2456
     20  OD2       -0.5560   69.7290   72.4350 O.co2  69  ASP69      -0.2456
     21  N         -1.5850   70.4460   74.9750 N.3    71  GLN71      -0.1245
     22  CA        -0.5000   70.2220   75.9240 C.3    71  GLN71       0.1566
     23  C         -0.0180   71.5210   76.5750 C.2    71  GLN71       0.2260
     24  O          0.4620   71.5140   77.7060 O.2    71  GLN71      -0.2867
     25  CB         0.6650   69.5380   75.2040 C.3    71  GLN71       0.0367
     26  CG         1.8880   69.2470   76.0600 C.3    71  GLN71       0.0905
     27  CD         1.7020   68.0640   76.9870 C.2    71  GLN71       0.2608
     28  OE1        2.6450   67.6300   77.6520 O.2    71  GLN71      -0.2717
     29  NE2        0.4860   67.5350   77.0390 N.am   71  GLN71      -0.0878
     30  N         -1.8890   61.9560   61.6760 N.3   118  TYR118     -0.1241
     31  CA        -2.9760   62.0600   62.6510 C.3   118  TYR118      0.1605
     32  C         -3.4780   63.4980   62.8070 C.2   118  TYR118      0.2264
     33  O         -4.4760   63.7450   63.4890 O.2   118  TYR118     -0.2867
     34  CB        -2.5340   61.5190   64.0200 C.3   118  TYR118      0.0534
     35  CG        -1.5190   62.3770   64.7540 C.ar  118  TYR118     -0.0201
     36  CD1       -1.9180   63.4920   65.4950 C.ar  118  TYR118     -0.0009
     37  CD2       -0.1570   62.0940   64.6770 C.ar  118  TYR118     -0.0009
     38  CE1       -0.9860   64.3030   66.1360 C.ar  118  TYR118      0.0417
     39  CE2        0.7830   62.8990   65.3110 C.ar  118  TYR118      0.0417
     40  CZ         0.3640   63.9990   66.0390 C.ar  118  TYR118      0.1957
     41  OH         1.2950   64.7890   66.6770 O.3   118  TYR118     -0.2866
     42  N         -5.5420   57.1570   70.4330 N.3   275  TRP275     -0.1241
     43  CA        -4.2340   56.7960   70.9580 C.3   275  TRP275      0.1605
     44  C         -4.2100   55.5260   71.7960 C.2   275  TRP275      0.2264
     45  O         -3.1430   55.0890   72.2170 O.2   275  TRP275     -0.2867
     46  CB        -3.6570   57.9540   71.7770 C.3   275  TRP275      0.0550
     47  CG        -3.5300   59.2090   70.9790 C.ar  275  TRP275      0.0003
     48  CD1       -4.4360   60.2160   70.8930 C.ar  275  TRP275      0.0946
     49  CD2       -2.4520   59.5600   70.1010 C.ar  275  TRP275      0.0152
     50  NE1       -3.9980   61.1780   70.0140 N.ar  275  TRP275     -0.2442
     51  CE2       -2.7810   60.7990   69.5130 C.ar  275  TRP275      0.0810
     52  CE3       -1.2400   58.9450   69.7560 C.ar  275  TRP275      0.0012
     53  CZ2       -1.9440   61.4420   68.5940 C.ar  275  TRP275      0.0191
     54  CZ3       -0.4050   59.5840   68.8420 C.ar  275  TRP275      0.0001
     55  CH2       -0.7640   60.8220   68.2720 C.ar  275  TRP275      0.0015
     56  N          6.8480   58.8490   69.0810 N.3   284  PHE284     -0.1241
     57  CA         7.0220   58.9460   67.6380 C.3   284  PHE284      0.1605
     58  C          6.3410   57.7760   66.9180 C.2   284  PHE284      0.2264
     59  O          6.8590   57.2600   65.9290 O.2   284  PHE284     -0.2867
     60  CB         8.5150   58.9930   67.2730 C.3   284  PHE284      0.0534
     61  CG         8.8320   59.9370   66.1400 C.ar  284  PHE284     -0.0203
     62  CD1        8.0660   59.9320   64.9730 C.ar  284  PHE284     -0.0042
     63  CD2        9.8850   60.8440   66.2460 C.ar  284  PHE284     -0.0042
     64  CE1        8.3380   60.8190   63.9270 C.ar  284  PHE284     -0.0003
     65  CE2       10.1660   61.7330   65.2010 C.ar  284  PHE284     -0.0003
     66  CZ         9.3890   61.7200   64.0390 C.ar  284  PHE284     -0.0000
     67  N          2.3510   56.6440   65.6150 N.3   286  PHE286     -0.1241
     68  CA         0.9790   57.0910   65.4260 C.3   286  PHE286      0.1605
     69  C          0.0570   55.9430   65.0040 C.2   286  PHE286      0.2264
     70  O          0.4410   55.0560   64.2390 O.2   286  PHE286     -0.2867
     71  CB         1.0080   58.2220   64.4050 C.3   286  PHE286      0.0534
     72  CG         2.2050   59.1260   64.5720 C.ar  286  PHE286     -0.0203
     73  CD1        2.3740   59.8660   65.7410 C.ar  286  PHE286     -0.0042
     74  CD2        3.2010   59.1810   63.5960 C.ar  286  PHE286     -0.0042
     75  CE1        3.5180   60.6420   65.9370 C.ar  286  PHE286     -0.0003
     76  CE2        4.3510   59.9550   63.7800 C.ar  286  PHE286     -0.0003
     77  CZ         4.5120   60.6860   64.9510 C.ar  286  PHE286     -0.0000
     78  N         10.9090   67.3270   69.9810 N.3   326  PHE326     -0.1227
     79  CA         9.4800   67.5220   70.1980 C.3   326  PHE326      0.1736
     80  C          8.7810   66.3240   70.8290 C.2   326  PHE326      0.2595
     81  O          8.0010   66.4750   71.7760 O.2   326  PHE326     -0.2718
     82  CB         8.7940   67.8960   68.8780 C.3   326  PHE326      0.0547
     83  CG         7.3050   68.0960   68.9960 C.ar  326  PHE326     -0.0202
     84  CD1        6.4260   67.0170   68.8670 C.ar  326  PHE326     -0.0042
     85  CD2        6.7780   69.3600   69.2520 C.ar  326  PHE326     -0.0042
     86  CE1        5.0380   67.1930   68.9930 C.ar  326  PHE326     -0.0003
     87  CE2        5.3930   69.5490   69.3790 C.ar  326  PHE326     -0.0003
     88  CZ         4.5220   68.4630   69.2500 C.ar  326  PHE326     -0.0000
     89  N          9.0710   65.1340   70.3170 N.am  327  PHE327     -0.1976
     90  CA         8.4410   63.9240   70.8200 C.3   327  PHE327      0.1639
     91  C          8.9540   63.4650   72.1730 C.2   327  PHE327      0.2290
     92  O          8.2830   62.6970   72.8580 O.2   327  PHE327     -0.2864
     93  CB         8.5650   62.8120   69.7760 C.3   327  PHE327      0.0560
     94  CG         8.0770   63.2290   68.4180 C.ar  327  PHE327     -0.0200
     95  CD1        8.9320   63.8640   67.5200 C.ar  327  PHE327     -0.0042
     96  CD2        6.7410   63.0800   68.0730 C.ar  327  PHE327     -0.0042
     97  CE1        8.4580   64.3450   66.3020 C.ar  327  PHE327     -0.0003
     98  CE2        6.2610   63.5590   66.8600 C.ar  327  PHE327     -0.0003
     99  CZ         7.1180   64.1920   65.9730 C.ar  327  PHE327     -0.0000
    100  N          6.9650   65.8040   74.7890 N.3   330  TYR330     -0.1227
    101  CA         5.6110   65.3310   75.0120 C.3   330  TYR330      0.1736
    102  C          5.4400   63.9900   75.7160 C.2   330  TYR330      0.2596
    103  O          4.3710   63.7260   76.2580 O.2   330  TYR330     -0.2718
    104  CB         4.8430   65.3190   73.6880 C.3   330  TYR330      0.0548
    105  CG         4.3610   66.6910   73.2650 C.ar  330  TYR330     -0.0200
    106  CD1        5.2620   67.7320   73.0410 C.ar  330  TYR330     -0.0009
    107  CD2        3.0000   66.9590   73.1180 C.ar  330  TYR330     -0.0009
    108  CE1        4.8200   69.0080   72.6860 C.ar  330  TYR330      0.0417
    109  CE2        2.5480   68.2320   72.7620 C.ar  330  TYR330      0.0417
    110  CZ         3.4620   69.2480   72.5500 C.ar  330  TYR330      0.1957
    111  OH         3.0200   70.5050   72.2080 O.3   330  TYR330     -0.2866
    112  N          6.4630   63.1430   75.7470 N.am  331  GLY331     -0.1957
    113  CA         6.2520   61.8660   76.4020 C.3   331  GLY331      0.1869
    114  C          7.3420   61.2330   77.2450 C.2   331  GLY331      0.2309
    115  O          7.0470   60.4630   78.1600 O.2   331  GLY331     -0.2863
@<TRIPOS>BOND
     1    30    31    1
     2    31    32    1
     3    31    34    1
     4    32    33    2
     5    74    76   ar
     6    74    72   ar
     7    76    77   ar
     8    64    66   ar
     9    64    62   ar
    10    34    35    1
    11    66    65   ar
    12    70    69    2
    13    71    72    1
    14    71    68    1
    15    72    73   ar
    16    37    35   ar
    17    37    39   ar
    18    35    36   ar
    19    77    75   ar
    20    62    61   ar
    21    69    68    1
    22    65    63   ar
    23    39    40   ar
    24    68    67    1
    25    36    38   ar
    26    73    75   ar
    27    59    58    2
    28    99    97   ar
    29    99    98   ar
    30    40    38   ar
    31    40    41    1
    32    61    63   ar
    33    61    60    1
    34     1     2    1
    35    97    95   ar
    36     4     3    2
    37    98    96   ar
    38    58    57    1
    39    60    57    1
    40    95    94   ar
    41     2     3    1
    42     2     5    1
    43    57    56    1
    44     5     6    1
    45    96    94   ar
    46    55    53   ar
    47    55    54   ar
    48    94    93    1
    49    53    51   ar
    50    54    52   ar
    51    84    86   ar
    52    84    83   ar
    53    82    83    1
    54    82    79    1
    55    86    88   ar
    56    83    85   ar
    57    88    87   ar
    58    85    87   ar
    59     6     8   ar
    60     6     7   ar
    61     8    10   ar
    62    51    50   ar
    63    51    49   ar
    64    52    49   ar
    65    93    90    1
    66    13    14    1
    67    78    79    1
    68    50    48   ar
    69    49    47   ar
    70    79    80    1
    71    17    14    1
    72    17    18    1
    73    89    90    1
    74    89    80   am
    75    42    43    1
    76     7     9   ar
    77    10    11   ar
    78    90    91    1
    79    19    18   ar
    80    80    81    2
    81    14    15    1
    82    48    47   ar
    83    43    46    1
    84    43    44    1
    85    47    46    1
    86    18    20   ar
    87    16    15    2
    88     9    11   ar
    89    11    12    1
    90    44    45    2
    91    91    92    2
    92   111   110    1
    93   110   108   ar
    94   110   109   ar
    95   108   106   ar
    96   109   107   ar
    97   106   105   ar
    98   107   105   ar
    99   105   104    1
   100   104   101    1
   101   100   101    1
   102    21    22    1
   103   101   102    1
   104    25    22    1
   105    25    26    1
   106   102   112   am
   107   102   103    2
   108   112   113    1
   109    22    23    1
   110    26    27    1
   111   113   114    1
   112    23    24    2
   113    27    29   am
   114    27    28    2
   115   114   115    2
