@<TRIPOS>MOLECULE
tmp/2c5cC00.pdb
 103 101 0 0 0
SMALL
GASTEIGER

@<TRIPOS>ATOM
      1  N        -21.9360   55.9020   -6.0910 N.3     1  THR1       -0.1218
      2  CA       -22.2150   57.3640   -6.0550 C.3     1  THR1        0.1862
      3  C        -20.9300   58.1290   -6.2840 C.2     1  THR1        0.2287
      4  O        -19.8920   57.7360   -5.7830 O.2     1  THR1       -0.2866
      5  CB       -22.7640   57.7100   -4.6900 C.3     1  THR1        0.1770
      6  OG1      -23.4920   56.5960   -4.1920 O.3     1  THR1       -0.2211
      7  CG2      -23.8070   58.8450   -4.7190 C.3     1  THR1        0.0375
      8  N        -26.5540   68.2850    3.7740 N.3    30  PHE30      -0.1227
      9  CA       -27.2350   67.7360    4.9710 C.3    30  PHE30       0.1736
     10  C        -27.5600   66.3090    4.8700 C.2    30  PHE30       0.2596
     11  O        -27.6010   65.8280    3.7870 O.2    30  PHE30      -0.2718
     12  CB       -28.5250   68.4660    5.2330 C.3    30  PHE30       0.0547
     13  CG       -29.6470   68.0690    4.3300 C.ar   30  PHE30      -0.0202
     14  CD1      -29.7210   68.5640    3.0450 C.ar   30  PHE30      -0.0042
     15  CD2      -30.6620   67.2530    4.7850 C.ar   30  PHE30      -0.0042
     16  CE1      -30.7530   68.2120    2.2000 C.ar   30  PHE30      -0.0003
     17  CE2      -31.7190   66.8950    3.9300 C.ar   30  PHE30      -0.0003
     18  CZ       -31.7550   67.3670    2.6440 C.ar   30  PHE30      -0.0000
     19  N        -27.8350   65.6470    6.0000 N.am   31  THR31      -0.1939
     20  CA       -28.2700   64.2520    6.0400 C.3    31  THR31       0.2028
     21  C        -29.3420   64.0540    7.0630 C.2    31  THR31       0.2642
     22  O        -29.2520   64.4870    8.1740 O.2    31  THR31      -0.2714
     23  CB       -27.1240   63.2650    6.3140 C.3    31  THR31       0.1808
     24  OG1      -27.6290   61.9250    6.3740 O.3    31  THR31      -0.2208
     25  CG2      -26.5280   63.4250    7.6970 C.3    31  THR31       0.0379
     26  N        -30.3740   63.3630    6.6320 N.am   32  ASN32      -0.1957
     27  CA       -31.4860   62.9980    7.4820 C.3    32  ASN32       0.1819
     28  C        -31.2470   61.7140    8.3040 C.2    32  ASN32       0.2621
     29  O        -32.1420   61.3050    9.0680 O.2    32  ASN32      -0.2715
     30  CB       -32.7090   62.8620    6.5940 C.3    32  ASN32       0.1195
     31  CG       -32.5960   61.6830    5.6250 C.2    32  ASN32       0.2630
     32  OD1      -31.4780   61.0610    5.4260 O.2    32  ASN32      -0.2716
     33  ND2      -33.7700   61.3250    5.0280 N.am   32  ASN32      -0.0877
     34  N        -30.0580   61.0980    8.1600 N.am   33  ARG33      -0.1977
     35  CA       -29.6740   59.8930    8.9420 C.3    33  ARG33       0.1597
     36  C        -29.1590   60.2090   10.3660 C.2    33  ARG33       0.2287
     37  O        -28.0860   60.7390   10.5930 O.2    33  ARG33      -0.2864
     38  CB       -28.5990   59.0800    8.2320 C.3    33  ARG33       0.0334
     39  CG       -28.8870   58.8160    6.7800 C.3    33  ARG33       0.0492
     40  CD       -30.2340   58.1620    6.4450 C.3    33  ARG33       0.2205
     41  NE       -30.3470   58.0690    5.0160 N.pl3  33  ARG33      -0.0865
     42  CZ       -30.0010   56.9900    4.3040 C.cat  33  ARG33       0.5346
     43  NH1      -29.5660   55.8530    4.9280 N.pl3  33  ARG33       0.1354
     44  NH2      -30.0780   57.0480    2.9360 N.pl3  33  ARG33       0.1354
     45  N        -19.9770   61.4430   -0.5100 N.3    53  LYS53      -0.1231
     46  CA       -20.4600   60.9450   -1.8050 C.3    53  LYS53       0.1693
     47  C        -21.9670   61.2980   -1.9800 C.2    53  LYS53       0.2593
     48  O        -22.8300   60.8550   -1.2200 O.2    53  LYS53      -0.2718
     49  CB       -20.2490   59.4180   -1.9290 C.3    53  LYS53       0.0285
     50  CG       -18.8570   58.9810   -2.3690 C.3    53  LYS53       0.0035
     51  CD       -18.5520   57.5130   -2.0230 C.3    53  LYS53       0.0206
     52  CE       -17.9520   56.6600   -3.2320 C.3    53  LYS53       0.1093
     53  NZ       -16.9970   57.3090   -4.1220 N.3    53  LYS53      -0.1314
     54  N        -22.2700   62.1150   -2.9800 N.am   54  THR54      -0.1939
     55  CA       -23.6520   62.4320   -3.2860 C.3    54  THR54       0.2028
     56  C        -23.8330   63.0210   -4.6980 C.2    54  THR54       0.2642
     57  O        -23.0240   63.8360   -5.1960 O.2    54  THR54      -0.2714
     58  CB       -24.2360   63.4080   -2.2670 C.3    54  THR54       0.1808
     59  OG1      -25.5690   63.7720   -2.6440 O.3    54  THR54      -0.2208
     60  CG2      -23.5080   64.7220   -2.3250 C.3    54  THR54       0.0379
     61  N        -24.9330   62.6130   -5.3370 N.am   55  ASN55      -0.1957
     62  CA       -25.3080   63.1200   -6.6570 C.3    55  ASN55       0.1819
     63  C        -25.9380   64.4760   -6.5690 C.2    55  ASN55       0.2621
     64  O        -26.2220   65.0420   -7.5930 O.2    55  ASN55      -0.2715
     65  CB       -26.3140   62.2020   -7.3270 C.3    55  ASN55       0.1195
     66  CG       -25.6540   61.1650   -8.2210 C.2    55  ASN55       0.2630
     67  OD1      -25.7580   59.9250   -7.9820 O.2    55  ASN55      -0.2716
     68  ND2      -24.9670   61.6570   -9.2820 N.am   55  ASN55      -0.0877
     69  N        -26.2260   64.9590   -5.3610 N.am   56  ALA56      -0.1977
     70  CA       -26.7660   66.2950   -5.1380 C.3    56  ALA56       0.1597
     71  C        -25.5950   67.1870   -4.6290 C.2    56  ALA56       0.2287
     72  O        -25.5530   67.6950   -3.5040 O.2    56  ALA56      -0.2864
     73  CB       -27.9150   66.2310   -4.1500 C.3    56  ALA56       0.0319
     74  N        -28.5550   66.9980   -0.2600 N.3    62  GLY62      -0.1210
     75  CA       -28.5590   65.9110    0.6820 C.3    62  GLY62       0.1956
     76  C        -27.5180   64.8380    0.4080 C.2    62  GLY62       0.2612
     77  O        -27.1130   64.6060   -0.7530 O.2    62  GLY62      -0.2717
     78  N        -27.1290   64.1260    1.4680 N.am   63  PHE63      -0.1962
     79  CA       -26.1670   62.9980    1.3980 C.3    63  PHE63       0.1771
     80  C        -26.4800   61.9420    2.4780 C.2    63  PHE63       0.2620
     81  O        -27.0370   62.2370    3.5290 O.2    63  PHE63      -0.2715
     82  CB       -24.6990   63.5110    1.5410 C.3    63  PHE63       0.0574
     83  CG       -24.2970   63.8680    2.9930 C.ar   63  PHE63      -0.0200
     84  CD1      -24.4890   65.1450    3.5070 C.ar   63  PHE63      -0.0042
     85  CD2      -23.7670   62.8950    3.8520 C.ar   63  PHE63      -0.0042
     86  CE1      -24.1820   65.4500    4.8050 C.ar   63  PHE63      -0.0003
     87  CE2      -23.4340   63.2380    5.1800 C.ar   63  PHE63      -0.0003
     88  CZ       -23.6500   64.5060    5.6290 C.ar   63  PHE63      -0.0000
     89  N        -26.0680   60.7270    2.1950 N.am   64  SER64      -0.1936
     90  CA       -26.0220   59.7060    3.2200 C.3    64  SER64       0.2055
     91  C        -24.7410   58.9100    3.2180 C.2    64  SER64       0.2642
     92  O        -24.5270   58.1190    4.1090 O.2    64  SER64      -0.2714
     93  CB       -27.1360   58.7160    2.9960 C.3    64  SER64       0.2130
     94  OG       -26.8310   58.0020    1.8230 O.3    64  SER64      -0.2179
     95  N        -23.8710   59.0910    2.2390 N.am   65  GLU65      -0.1976
     96  CA       -22.6250   58.3030    2.1880 C.3    65  GLU65       0.1602
     97  C        -21.3770   59.1300    2.5580 C.2    65  GLU65       0.2287
     98  O        -21.1070   60.1220    1.9330 O.2    65  GLU65      -0.2864
     99  CB       -22.4170   57.7410    0.8000 C.3    65  GLU65       0.0415
    100  CG       -23.3160   56.5640    0.4720 C.3    65  GLU65       0.1163
    101  CD       -23.2540   56.2220   -1.0060 C.2    65  GLU65       0.3649
    102  OE1      -22.1650   55.8510   -1.5260 O.co2  65  GLU65      -0.2457
    103  OE2      -24.2950   56.3750   -1.6460 O.co2  65  GLU65      -0.2457
@<TRIPOS>BOND
     1    68    66   am
     2    66    67    2
     3    66    65    1
     4    64    63    2
     5    65    62    1
     6    62    63    1
     7    62    61    1
     8    63    69   am
     9     3     2    1
    10     3     4    2
    11     1     2    1
    12     2     5    1
    13    69    70    1
    14    61    56   am
    15    57    56    2
    16    70    71    1
    17    70    73    1
    18     7     5    1
    19    56    55    1
    20     5     6    1
    21    71    72    2
    22    53    52    1
    23    55    54    1
    24    55    58    1
    25    52    51    1
    26    54    47   am
    27    59    58    1
    28    50    51    1
    29    50    49    1
    30    60    58    1
    31    47    46    1
    32    47    48    2
    33    49    46    1
    34    46    45    1
    35   103   101   ar
    36   102   101   ar
    37   101   100    1
    38    77    76    2
    39    74    75    1
    40    76    75    1
    41    76    78   am
    42   100    99    1
    43    99    96    1
    44    79    78    1
    45    79    82    1
    46    79    80    1
    47    82    83    1
    48    94    93    1
    49    98    97    2
    50    96    95    1
    51    96    97    1
    52    89    80   am
    53    89    90    1
    54    16    18   ar
    55    16    14   ar
    56    95    91   am
    57    80    81    2
    58    18    17   ar
    59    44    42    1
    60    83    84   ar
    61    83    85   ar
    62    93    90    1
    63    14    13   ar
    64    91    90    1
    65    91    92    2
    66    84    86   ar
    67     8     9    1
    68    11    10    2
    69    85    87   ar
    70    17    15   ar
    71    42    43    1
    72    42    41    2
    73    13    15   ar
    74    13    12    1
    75    86    88   ar
    76    10     9    1
    77    10    19   am
    78     9    12    1
    79    41    40    1
    80    33    31   am
    81    87    88   ar
    82    32    31    2
    83    31    30    1
    84    19    20    1
    85    20    23    1
    86    20    21    1
    87    23    24    1
    88    23    25    1
    89    40    39    1
    90    30    27    1
    91    26    21   am
    92    26    27    1
    93    39    38    1
    94    21    22    2
    95    27    28    1
    96    34    28   am
    97    34    35    1
    98    38    35    1
    99    28    29    2
   100    35    36    1
   101    36    37    2
