@<TRIPOS>MOLECULE
tmp/2c5gA00.pdb
 149 149 0 0 0
SMALL
GASTEIGER

@<TRIPOS>ATOM
      1  N         -3.9420   68.6270   70.3260 N.3    69  ASP69      -0.1239
      2  CA        -2.9140   68.7700   71.3580 C.3    69  ASP69       0.1674
      3  C         -3.3100   69.8070   72.4110 C.2    69  ASP69       0.2266
      4  O         -3.3870   71.0020   72.1210 O.2    69  ASP69      -0.2867
      5  CB        -1.5830   69.1690   70.7040 C.3    69  ASP69       0.1410
      6  CG        -0.4370   69.2860   71.7040 C.2    69  ASP69       0.3668
      7  OD1        0.6990   69.5490   71.2670 O.co2  69  ASP69      -0.2456
      8  OD2       -0.6630   69.1150   72.9200 O.co2  69  ASP69      -0.2456
      9  N          3.6130   77.4220   70.7670 N.3    77  GLY77      -0.1225
     10  CA         4.4860   76.3970   70.2180 C.3    77  GLY77       0.1811
     11  C          3.7630   75.1150   69.8350 C.2    77  GLY77       0.2280
     12  O          4.0970   74.4770   68.8360 O.2    77  GLY77      -0.2866
     13  N         -0.0640   74.1570   65.7380 N.3    81  TRP81      -0.1241
     14  CA        -0.2200   72.9490   64.9410 C.3    81  TRP81       0.1605
     15  C         -1.6280   72.3720   64.9890 C.2    81  TRP81       0.2264
     16  O         -1.9670   71.4970   64.1940 O.2    81  TRP81      -0.2867
     17  CB         0.7880   71.8900   65.3990 C.3    81  TRP81       0.0550
     18  CG         2.1960   72.3860   65.3350 C.ar   81  TRP81       0.0003
     19  CD1        2.9560   72.8520   66.3730 C.ar   81  TRP81       0.0946
     20  CD2        2.9960   72.5310   64.1560 C.ar   81  TRP81       0.0152
     21  NE1        4.1800   73.2820   65.9100 N.ar   81  TRP81      -0.2442
     22  CE2        4.2300   73.0950   64.5530 C.ar   81  TRP81       0.0810
     23  CE3        2.7880   72.2410   62.7990 C.ar   81  TRP81       0.0012
     24  CZ2        5.2550   73.3740   63.6400 C.ar   81  TRP81       0.0191
     25  CZ3        3.8080   72.5190   61.8920 C.ar   81  TRP81       0.0001
     26  CH2        5.0260   73.0800   62.3190 C.ar   81  TRP81       0.0015
     27  N          1.9940   67.3260   57.3050 N.3   114  GLY114     -0.1210
     28  CA         2.3840   66.1880   58.1160 C.3   114  GLY114      0.1956
     29  C          1.5450   66.1500   59.3780 C.2   114  GLY114      0.2612
     30  O          0.5010   66.8070   59.4620 O.2   114  GLY114     -0.2717
     31  N          2.0010   65.3890   60.3670 N.am  115  GLY115     -0.1956
     32  CA         1.2600   65.2670   61.6100 C.3   115  GLY115      0.1869
     33  C          1.1220   63.8150   62.0340 C.2   115  GLY115      0.2309
     34  O          0.1450   63.4410   62.6770 O.2   115  GLY115     -0.2863
     35  N         -1.9880   61.2880   62.1340 N.3   118  TYR118     -0.1227
     36  CA        -3.0650   61.3600   63.1260 C.3   118  TYR118      0.1736
     37  C         -3.5710   62.7960   63.3010 C.2   118  TYR118      0.2596
     38  O         -4.5400   63.0410   64.0210 O.2   118  TYR118     -0.2718
     39  CB        -2.5890   60.8120   64.4840 C.3   118  TYR118      0.0548
     40  CG        -1.5560   61.6700   65.1900 C.ar  118  TYR118     -0.0200
     41  CD1       -1.9360   62.7780   65.9520 C.ar  118  TYR118     -0.0009
     42  CD2       -0.1950   61.3810   65.0830 C.ar  118  TYR118     -0.0009
     43  CE1       -0.9830   63.5780   66.5900 C.ar  118  TYR118      0.0417
     44  CE2        0.7640   62.1710   65.7140 C.ar  118  TYR118      0.0417
     45  CZ         0.3620   63.2680   66.4650 C.ar  118  TYR118      0.1957
     46  OH         1.3150   64.0520   67.0760 O.3   118  TYR118     -0.2866
     47  N         -2.9170   63.7390   62.6310 N.am  119  SER119     -0.1952
     48  CA        -3.2910   65.1430   62.7400 C.3   119  SER119      0.1924
     49  C         -2.8250   65.9070   61.5120 C.2   119  SER119      0.2314
     50  O         -2.1840   65.3400   60.6260 O.2   119  SER119     -0.2863
     51  CB        -2.6400   65.7530   63.9820 C.3   119  SER119      0.2116
     52  OG        -1.2250   65.7050   63.8620 O.3   119  SER119     -0.2180
     53  N          1.3590   77.3840   57.0730 N.3   127  TYR127     -0.1241
     54  CA         1.2480   76.8380   55.7160 C.3   127  TYR127      0.1605
     55  C          0.6320   77.8450   54.7410 C.2   127  TYR127      0.2264
     56  O          0.2410   77.4750   53.6340 O.2   127  TYR127     -0.2867
     57  CB         0.3920   75.5600   55.6750 C.3   127  TYR127      0.0534
     58  CG         0.8600   74.4230   56.5600 C.ar  127  TYR127     -0.0201
     59  CD1        2.2100   74.2600   56.8840 C.ar  127  TYR127     -0.0009
     60  CD2       -0.0540   73.4910   57.0560 C.ar  127  TYR127     -0.0009
     61  CE1        2.6370   73.1910   57.6890 C.ar  127  TYR127      0.0417
     62  CE2        0.3600   72.4220   57.8530 C.ar  127  TYR127      0.0417
     63  CZ         1.7020   72.2790   58.1670 C.ar  127  TYR127      0.1957
     64  OH         2.0990   71.2270   58.9650 O.3   127  TYR127     -0.2866
     65  N          6.0710   67.5760   54.7170 N.3   196  GLU196     -0.1231
     66  CA         6.9490   67.3750   55.8610 C.3   196  GLU196      0.1699
     67  C          6.4270   66.2620   56.7750 C.2   196  GLU196      0.2592
     68  O          5.2170   66.0650   56.9010 O.2   196  GLU196     -0.2718
     69  CB         7.0920   68.7020   56.6220 C.3   196  GLU196      0.0402
     70  CG         8.0620   68.6870   57.8020 C.3   196  GLU196      0.1161
     71  CD         7.4080   68.2280   59.0930 C.2   196  GLU196      0.3649
     72  OE1        6.1600   68.1440   59.1370 O.co2 196  GLU196     -0.2457
     73  OE2        8.1400   67.9660   60.0740 O.co2 196  GLU196     -0.2457
     74  N          7.3530   65.5430   57.4010 N.am  197  SER197     -0.1952
     75  CA         7.0170   64.4460   58.3010 C.3   197  SER197      0.1924
     76  C          6.1200   63.4330   57.5870 C.2   197  SER197      0.2314
     77  O          6.5100   62.8820   56.5610 O.2   197  SER197     -0.2863
     78  CB         6.3280   64.9900   59.5560 C.3   197  SER197      0.2116
     79  OG         6.4050   64.0520   60.6140 O.3   197  SER197     -0.2180
     80  N         10.8020   66.7690   70.2510 N.3   327  PHE327     -0.1227
     81  CA         9.3800   66.9600   70.5080 C.3   327  PHE327      0.1736
     82  C          8.7030   65.7450   71.1420 C.2   327  PHE327      0.2595
     83  O          7.9760   65.8670   72.1290 O.2   327  PHE327     -0.2718
     84  CB         8.6550   67.3290   69.2070 C.3   327  PHE327      0.0547
     85  CG         7.1580   67.4790   69.3600 C.ar  327  PHE327     -0.0202
     86  CD1        6.3130   66.3800   69.2110 C.ar  327  PHE327     -0.0042
     87  CD2        6.5950   68.7240   69.6340 C.ar  327  PHE327     -0.0042
     88  CE1        4.9220   66.5180   69.3290 C.ar  327  PHE327     -0.0003
     89  CE2        5.2070   68.8770   69.7550 C.ar  327  PHE327     -0.0003
     90  CZ         4.3680   67.7680   69.6000 C.ar  327  PHE327     -0.0000
     91  N          8.9370   64.5650   70.5800 N.am  328  PHE328     -0.1976
     92  CA         8.3010   63.3700   71.1110 C.3   328  PHE328      0.1639
     93  C          8.8630   62.8990   72.4490 C.2   328  PHE328      0.2290
     94  O          8.1790   62.2000   73.1980 O.2   328  PHE328     -0.2864
     95  CB         8.3180   62.2610   70.0540 C.3   328  PHE328      0.0560
     96  CG         7.5150   62.6080   68.8260 C.ar  328  PHE328     -0.0200
     97  CD1        8.1230   63.1890   67.7190 C.ar  328  PHE328     -0.0042
     98  CD2        6.1360   62.4400   68.8150 C.ar  328  PHE328     -0.0042
     99  CE1        7.3660   63.6040   66.6220 C.ar  328  PHE328     -0.0003
    100  CE2        5.3690   62.8520   67.7240 C.ar  328  PHE328     -0.0003
    101  CZ         5.9840   63.4350   66.6280 C.ar  328  PHE328     -0.0000
    102  N          9.8920   77.3610   72.1470 N.3   429  TRP429     -0.1241
    103  CA        10.2240   76.0980   72.8080 C.3   429  TRP429      0.1605
    104  C         11.5850   76.2480   73.4900 C.2   429  TRP429      0.2264
    105  O         12.4060   77.0590   73.0630 O.2   429  TRP429     -0.2867
    106  CB        10.2920   74.9480   71.7920 C.3   429  TRP429      0.0550
    107  CG         8.9730   74.5670   71.1720 C.ar  429  TRP429      0.0003
    108  CD1        8.5160   74.9090   69.9290 C.ar  429  TRP429      0.0946
    109  CD2        7.9640   73.7270   71.7520 C.ar  429  TRP429      0.0152
    110  NE1        7.2880   74.3270   69.6960 N.ar  429  TRP429     -0.2442
    111  CE2        6.9270   73.5970   70.7990 C.ar  429  TRP429      0.0810
    112  CE3        7.8360   73.0700   72.9850 C.ar  429  TRP429      0.0012
    113  CZ2        5.7780   72.8340   71.0400 C.ar  429  TRP429      0.0191
    114  CZ3        6.6930   72.3120   73.2250 C.ar  429  TRP429      0.0001
    115  CH2        5.6800   72.2010   72.2540 C.ar  429  TRP429      0.0015
    116  N         13.8130   71.6940   66.1120 N.3   436  ILE436     -0.1231
    117  CA        12.6610   70.8120   66.1970 C.3   436  ILE436      0.1692
    118  C         11.9980   70.2830   64.9290 C.2   436  ILE436      0.2592
    119  O         12.0460   70.8970   63.8620 O.2   436  ILE436     -0.2718
    120  CB        11.5940   71.4980   67.0830 C.3   436  ILE436      0.0266
    121  CG1       12.2430   71.8940   68.4170 C.3   436  ILE436      0.0019
    122  CG2       10.4020   70.5800   67.3220 C.3   436  ILE436      0.0020
    123  CD1       11.4030   72.8320   69.2640 C.3   436  ILE436      0.0001
    124  N         11.3830   69.1150   65.0870 N.am  437  HIS437     -0.1962
    125  CA        10.6460   68.4360   64.0310 C.3   437  HIS437      0.1787
    126  C          9.5610   69.3860   63.5280 C.2   437  HIS437      0.2621
    127  O          8.6500   69.7500   64.2790 O.2   437  HIS437     -0.2715
    128  CB        10.0020   67.1740   64.6160 C.3   437  HIS437      0.0785
    129  CG         9.3370   66.2930   63.6060 C.ar  437  HIS437      0.0821
    130  ND1       10.0100   65.7460   62.5340 N.ar  437  HIS437     -0.2267
    131  CD2        8.0750   65.8040   63.5470 C.ar  437  HIS437      0.1154
    132  CE1        9.1930   64.9530   61.8620 C.ar  437  HIS437      0.1986
    133  NE2        8.0130   64.9710   62.4560 N.ar  437  HIS437     -0.2212
    134  N          9.6790   69.8000   62.2690 N.am  438  GLY438     -0.1940
    135  CA         8.6960   70.6900   61.6780 C.3   438  GLY438      0.2014
    136  C          9.0520   72.1670   61.6510 C.2   438  GLY438      0.2638
    137  O          8.3390   72.9690   61.0440 O.2   438  GLY438     -0.2714
    138  N         10.1600   72.5460   62.2770 N.am  439  TYR439     -0.1973
    139  CA        10.5010   73.9570   62.3070 C.3   439  TYR439      0.1639
    140  C         11.2880   74.5560   61.1480 C.2   439  TYR439      0.2290
    141  O         11.7520   75.6920   61.2270 O.2   439  TYR439     -0.2864
    142  CB        11.1200   74.3030   63.6650 C.3   439  TYR439      0.0560
    143  CG        10.0200   74.4770   64.6870 C.ar  439  TYR439     -0.0198
    144  CD1        9.3540   73.3690   65.2220 C.ar  439  TYR439     -0.0009
    145  CD2        9.5280   75.7490   64.9910 C.ar  439  TYR439     -0.0009
    146  CE1        8.2160   73.5260   66.0240 C.ar  439  TYR439      0.0417
    147  CE2        8.3910   75.9160   65.7870 C.ar  439  TYR439      0.0417
    148  CZ         7.7390   74.8040   66.2940 C.ar  439  TYR439      0.1957
    149  OH         6.5920   74.9740   67.0340 O.3   439  TYR439     -0.2866
@<TRIPOS>BOND
     1    56    55    2
     2    65    66    1
     3    55    54    1
     4    57    54    1
     5    57    58    1
     6    54    53    1
     7    66    69    1
     8    66    67    1
     9    58    59   ar
    10    58    60   ar
    11    77    76    2
    12    69    70    1
    13    67    68    2
    14    67    74   am
    15    59    61   ar
    16    60    62   ar
    17    27    28    1
    18    74    75    1
    19    76    75    1
    20    61    63   ar
    21    70    71    1
    22    62    63   ar
    23    28    29    1
    24    63    64    1
    25    75    78    1
    26    71    72   ar
    27    71    73   ar
    28    29    30    2
    29    29    31   am
    30    78    79    1
    31    31    32    1
    32    50    49    2
    33   137   136    2
    34   140   141    2
    35   140   139    1
    36    49    48    1
    37    32    33    1
    38   136   135    1
    39   136   138   am
    40   135   134    1
    41   132   133   ar
    42   132   130   ar
    43    25    26   ar
    44    25    23   ar
    45    33    34    2
    46    35    36    1
    47   134   126   am
    48   138   139    1
    49   139   142    1
    50    26    24   ar
    51   133   131   ar
    52   130   129   ar
    53    47    48    1
    54    47    37   am
    55    48    51    1
    56    23    20   ar
    57    36    37    1
    58    36    39    1
    59    37    38    2
    60   126   125    1
    61   126   127    2
    62   131   129   ar
    63   129   128    1
    64    24    22   ar
    65   142   143    1
    66   119   118    2
    67    52    51    1
    68   125   128    1
    69   125   124    1
    70    20    22   ar
    71    20    18   ar
    72    16    15    2
    73    39    40    1
    74    22    21   ar
    75   143   145   ar
    76   143   144   ar
    77   118   124   am
    78   118   117    1
    79    14    15    1
    80    14    17    1
    81    14    13    1
    82   145   147   ar
    83    42    40   ar
    84    42    44   ar
    85    40    41   ar
    86   144   146   ar
    87    18    17    1
    88    18    19   ar
    89    44    45   ar
    90   147   148   ar
    91    21    19   ar
    92    41    43   ar
    93   146   148   ar
    94   116   117    1
    95   117   120    1
    96   148   149    1
    97    45    43   ar
    98    45    46    1
    99    99   101   ar
   100    99    97   ar
   101   101   100   ar
   102   120   122    1
   103   120   121    1
   104    97    96   ar
   105   100    98   ar
   106   121   123    1
   107    98    96   ar
   108    96    95    1
   109    12    11    2
   110    84    85    1
   111    84    81    1
   112    86    88   ar
   113    86    85   ar
   114    88    90   ar
   115    85    87   ar
   116    90    89   ar
   117    87    89   ar
   118   110   108   ar
   119   110   111   ar
   120    11    10    1
   121   108   107   ar
   122    95    92    1
   123    10     9    1
   124    80    81    1
   125     1     2    1
   126    81    82    1
   127    91    92    1
   128    91    82   am
   129     5     2    1
   130     5     6    1
   131   111   113   ar
   132   111   109   ar
   133   113   115   ar
   134    92    93    1
   135    82    83    2
   136   107   109   ar
   137   107   106    1
   138     7     6   ar
   139     2     3    1
   140     6     8   ar
   141   109   112   ar
   142   106   103    1
   143     4     3    2
   144   102   103    1
   145   115   114   ar
   146    93    94    2
   147   103   104    1
   148   112   114   ar
   149   105   104    2
