@<TRIPOS>MOLECULE
tmp/2c5oC00.pdb
 156 147 0 0 0
SMALL
GASTEIGER

@<TRIPOS>ATOM
      1  N         43.0310   42.8400   28.6660 N.3    10  ILE10      -0.1231
      2  CA        44.3800   43.3070   28.4020 C.3    10  ILE10       0.1692
      3  C         44.7550   44.6140   29.0940 C.2    10  ILE10       0.2593
      4  O         45.9230   44.8560   29.3970 O.2    10  ILE10      -0.2718
      5  CB        44.7990   43.1830   26.9140 C.3    10  ILE10       0.0266
      6  CG1       43.9220   43.9890   25.9580 C.3    10  ILE10       0.0019
      7  CG2       44.7510   41.7030   26.5150 C.3    10  ILE10       0.0020
      8  CD1       44.2290   43.6480   24.4940 C.3    10  ILE10       0.0001
      9  N         43.7490   45.4040   29.4410 N.am   11  GLY11      -0.1942
     10  CA        43.9980   46.6640   30.1070 C.3    11  GLY11       0.2014
     11  C         42.7260   47.3690   30.5320 C.2    11  GLY11       0.2639
     12  O         41.6380   46.7860   30.4740 O.2    11  GLY11      -0.2714
     13  N         42.9170   48.6060   30.9990 N.am   12  GLU12      -0.1963
     14  CA        41.9200   49.6770   30.9950 C.3    12  GLU12       0.1733
     15  C         42.5240   50.9370   30.3840 C.2    12  GLU12       0.2616
     16  O         43.7090   51.2100   30.5800 O.2    12  GLU12      -0.2715
     17  CB        41.5080   50.0420   32.4200 C.3    12  GLU12       0.0429
     18  CG        40.4180   49.1580   32.9960 C.3    12  GLU12       0.1163
     19  CD        40.9780   48.1900   34.0180 C.2    12  GLU12       0.3649
     20  OE1       42.1360   47.7430   33.8350 O.co2  12  GLU12      -0.2457
     21  OE2       40.2580   47.8990   35.0000 O.co2  12  GLU12      -0.2457
     22  N         41.7030   51.7070   29.6700 N.am   13  GLY13      -0.1955
     23  CA        42.0750   53.0380   29.2010 C.3    13  GLY13       0.1869
     24  C         41.1860   54.1340   29.7710 C.2    13  GLY13       0.2309
     25  O         40.5130   53.9250   30.7810 O.2    13  GLY13      -0.2863
     26  N         39.6280   46.7770   28.2660 N.3    18  VAL18      -0.1245
     27  CA        40.0280   46.3030   26.9570 C.3    18  VAL18       0.1561
     28  C         40.3050   44.8140   27.0580 C.2    18  VAL18       0.2260
     29  O         41.1540   44.3760   27.8350 O.2    18  VAL18      -0.2867
     30  CB        41.2920   47.0490   26.4600 C.3    18  VAL18       0.0252
     31  CG1       41.6170   46.6810   25.0270 C.3    18  VAL18       0.0019
     32  CG2       41.0330   48.5320   26.5060 C.3    18  VAL18       0.0019
     33  N         41.3160   44.1930   19.6590 N.3    31  ALA31      -0.1245
     34  CA        41.1660   44.6700   21.0040 C.3    31  ALA31       0.1562
     35  C         39.7780   45.2950   21.0910 C.2    31  ALA31       0.2260
     36  O         39.4220   46.0860   20.2450 O.2    31  ALA31      -0.2867
     37  CB        42.2500   45.6850   21.3720 C.3    31  ALA31       0.0290
     38  N         37.2280   47.5870   23.1900 N.3    33  LYS33      -0.1245
     39  CA        37.1310   48.4950   24.3120 C.3    33  LYS33       0.1561
     40  C         35.6600   48.6500   24.6120 C.2    33  LYS33       0.2260
     41  O         34.8810   49.1170   23.7850 O.2    33  LYS33      -0.2867
     42  CB        37.6590   49.8700   23.9650 C.3    33  LYS33       0.0271
     43  CG        37.6510   50.7970   25.1360 C.3    33  LYS33       0.0035
     44  CD        38.0040   52.1990   24.6350 C.3    33  LYS33       0.0206
     45  CE        39.4720   52.5200   24.8120 C.3    33  LYS33       0.1093
     46  NZ        39.6480   53.9220   25.3070 N.3    33  LYS33      -0.1314
     47  N         37.1650   60.0380   20.8600 N.3    51  GLU51      -0.1245
     48  CA        38.1050   59.0680   20.3140 C.3    51  GLU51       0.1567
     49  C         37.5090   58.5210   19.0170 C.2    51  GLU51       0.2260
     50  O         38.1540   58.4030   17.9750 O.2    51  GLU51      -0.2867
     51  CB        38.3960   57.9600   21.3360 C.3    51  GLU51       0.0388
     52  CG        39.0930   56.7540   20.6960 C.3    51  GLU51       0.1160
     53  CD        39.9260   55.9300   21.6780 C.2    51  GLU51       0.3649
     54  OE1       39.2970   55.3620   22.5900 O.co2  51  GLU51      -0.2457
     55  OE2       41.1860   55.8500   21.5820 O.co2  51  GLU51      -0.2457
     56  N         46.6080   53.8850   15.5890 N.3    64  VAL64      -0.1245
     57  CA        45.7830   52.7080   15.8090 C.3    64  VAL64       0.1561
     58  C         44.4690   52.7890   15.0320 C.2    64  VAL64       0.2260
     59  O         43.7860   53.8210   15.0380 O.2    64  VAL64      -0.2867
     60  CB        45.4910   52.5090   17.3170 C.3    64  VAL64       0.0252
     61  CG1       44.4170   53.5140   17.8350 C.3    64  VAL64       0.0019
     62  CG2       44.9940   51.0550   17.5300 C.3    64  VAL64       0.0019
     63  N         39.1910   47.7630   17.9280 N.3    80  PHE80      -0.1227
     64  CA        40.4730   48.2280   17.4180 C.3    80  PHE80       0.1736
     65  C         41.2900   47.0670   16.8880 C.2    80  PHE80       0.2595
     66  O         41.0430   45.9390   17.3110 O.2    80  PHE80      -0.2718
     67  CB        41.3080   48.8410   18.5290 C.3    80  PHE80       0.0547
     68  CG        40.7410   50.1180   19.0790 C.ar   80  PHE80      -0.0202
     69  CD1       39.9040   50.1040   20.1740 C.ar   80  PHE80      -0.0042
     70  CD2       41.0070   51.3320   18.4580 C.ar   80  PHE80      -0.0042
     71  CE1       39.3830   51.2690   20.6620 C.ar   80  PHE80      -0.0003
     72  CE2       40.5400   52.4990   18.9980 C.ar   80  PHE80      -0.0003
     73  CZ        39.6940   52.4780   20.0840 C.ar   80  PHE80      -0.0000
     74  N         42.1740   47.3180   15.9190 N.am   81  GLU81      -0.1965
     75  CA        43.1770   46.3170   15.5220 C.3    81  GLU81       0.1733
     76  C         44.0560   45.9520   16.7400 C.2    81  GLU81       0.2616
     77  O         44.2470   46.7280   17.6600 O.2    81  GLU81      -0.2715
     78  CB        44.0860   46.8660   14.4340 C.3    81  GLU81       0.0429
     79  CG        44.9190   48.0740   14.8540 C.3    81  GLU81       0.1163
     80  CD        46.0180   48.4830   13.8580 C.2    81  GLU81       0.3649
     81  OE1       46.1760   49.6760   13.5470 O.co2  81  GLU81      -0.2457
     82  OE2       46.8310   47.6510   13.3960 O.co2  81  GLU81      -0.2457
     83  N         44.6390   44.7640   16.7720 N.am   82  PHE82      -0.1960
     84  CA        45.2170   44.3230   18.0270 C.3    82  PHE82       0.1771
     85  C         46.7150   44.4960   17.8580 C.2    82  PHE82       0.2619
     86  O         47.2390   44.1290   16.7970 O.2    82  PHE82      -0.2715
     87  CB        44.9650   42.8250   18.2810 C.3    82  PHE82       0.0574
     88  CG        45.8230   42.2860   19.3930 C.ar   82  PHE82      -0.0200
     89  CD1       46.9200   41.5020   19.1180 C.ar   82  PHE82      -0.0042
     90  CD2       45.4880   42.5570   20.7090 C.ar   82  PHE82      -0.0042
     91  CE1       47.7010   40.9820   20.1540 C.ar   82  PHE82      -0.0003
     92  CE2       46.2750   42.0630   21.7600 C.ar   82  PHE82      -0.0003
     93  CZ        47.4010   41.2680   21.4800 C.ar   82  PHE82      -0.0000
     94  N         47.3640   45.0390   18.8960 N.am   83  LEU83      -0.1977
     95  CA        48.8140   45.0890   18.9120 C.3    83  LEU83       0.1596
     96  C         49.4150   44.3810   20.1220 C.2    83  LEU83       0.2287
     97  O         48.9120   44.4600   21.2450 O.2    83  LEU83      -0.2864
     98  CB        49.3150   46.5340   18.7800 C.3    83  LEU83       0.0297
     99  CG        49.2970   47.0850   17.3420 C.3    83  LEU83       0.0022
    100  CD1       48.0380   47.9020   17.0870 C.3    83  LEU83       0.0001
    101  CD2       50.5470   47.9570   17.1030 C.3    83  LEU83       0.0001
    102  N         51.6910   44.7990   22.4940 N.3    85  GLN85      -0.1231
    103  CA        51.7650   45.4530   23.7930 C.3    85  GLN85       0.1698
    104  C         52.1230   46.9210   23.6690 C.2    85  GLN85       0.2592
    105  O         52.3720   47.4270   22.5910 O.2    85  GLN85      -0.2718
    106  CB        52.7930   44.7850   24.7190 C.3    85  GLN85       0.0381
    107  CG        54.2320   45.1380   24.4790 C.3    85  GLN85       0.0905
    108  CD        55.2030   44.2480   25.2420 C.2    85  GLN85       0.2608
    109  OE1       56.3700   44.1360   24.8670 O.2    85  GLN85      -0.2717
    110  NE2       54.7350   43.6430   26.3330 N.am   85  GLN85      -0.0878
    111  N         52.0820   47.6110   24.7980 N.am   86  ASP86      -0.1974
    112  CA        52.3510   49.0230   24.8990 C.3    86  ASP86       0.1709
    113  C         53.8220   49.2540   25.2070 C.2    86  ASP86       0.2293
    114  O         54.5070   48.3670   25.7250 O.2    86  ASP86      -0.2864
    115  CB        51.4110   49.6480   25.9010 C.3    86  ASP86       0.1436
    116  CG        51.8500   49.4560   27.3530 C.2    86  ASP86       0.3671
    117  OD1       53.0400   49.6250   27.7030 O.co2  86  ASP86      -0.2456
    118  OD2       51.0250   49.1740   28.2600 O.co2  86  ASP86      -0.2456
    119  N         52.3730   54.3260   27.8510 N.3   131  GLN131     -0.1231
    120  CA        51.2090   53.4300   27.9250 C.3   131  GLN131      0.1698
    121  C         50.2060   53.6740   26.8000 C.2   131  GLN131      0.2592
    122  O         49.4680   52.7660   26.3990 O.2   131  GLN131     -0.2718
    123  CB        50.4660   53.6200   29.2580 C.3   131  GLN131      0.0381
    124  CG        51.4150   53.4800   30.4250 C.3   131  GLN131      0.0905
    125  CD        51.9120   54.8370   30.9410 C.2   131  GLN131      0.2608
    126  OE1       51.5080   55.2700   32.0260 O.2   131  GLN131     -0.2717
    127  NE2       52.7580   55.5140   30.1670 N.am  131  GLN131     -0.0878
    128  N         50.2070   54.8760   26.2350 N.am  132  ASN132     -0.1974
    129  CA        49.3590   55.0630   25.0610 C.3   132  ASN132      0.1688
    130  C         50.0400   54.7470   23.7400 C.2   132  ASN132      0.2292
    131  O         49.4880   55.1540   22.7130 O.2   132  ASN132     -0.2864
    132  CB        48.8680   56.5210   25.0160 C.3   132  ASN132      0.1181
    133  CG        47.8340   56.7830   26.0930 C.2   132  ASN132      0.2629
    134  OD1       47.2790   55.8100   26.6140 O.2   132  ASN132     -0.2716
    135  ND2       47.7340   58.0260   26.5850 N.am  132  ASN132     -0.0877
    136  N         51.5930   51.8130   21.1610 N.3   134  LEU134     -0.1245
    137  CA        51.4400   50.3730   20.9690 C.3   134  LEU134      0.1561
    138  C         52.4000   49.8280   19.9360 C.2   134  LEU134      0.2260
    139  O         52.5480   50.4100   18.8480 O.2   134  LEU134     -0.2867
    140  CB        50.0140   50.0520   20.4820 C.3   134  LEU134      0.0270
    141  CG        48.9470   50.4700   21.5040 C.3   134  LEU134      0.0019
    142  CD1       47.4920   50.1390   21.1620 C.3   134  LEU134      0.0001
    143  CD2       49.3220   49.9360   22.8820 C.3   134  LEU134      0.0001
    144  N         47.8780   55.6020   20.2030 N.3   144  ALA144     -0.1231
    145  CA        46.5670   55.0330   20.5200 C.3   144  ALA144      0.1694
    146  C         45.9790   55.8490   21.6520 C.2   144  ALA144      0.2592
    147  O         46.6080   56.8140   22.0810 O.2   144  ALA144     -0.2718
    148  CB        46.6960   53.5490   20.9360 C.3   144  ALA144      0.0304
    149  N         44.7570   55.5020   22.0530 N.am  145  ASP145     -0.1974
    150  CA        44.0160   56.1970   23.0970 C.3   145  ASP145      0.1709
    151  C         43.7540   57.6840   22.9170 C.2   145  ASP145      0.2293
    152  O         44.3960   58.4700   23.6060 O.2   145  ASP145     -0.2864
    153  CB        44.6490   56.0450   24.4670 C.3   145  ASP145      0.1436
    154  CG        43.5980   56.2450   25.5400 C.2   145  ASP145      0.3671
    155  OD1       43.6190   55.6160   26.6150 O.co2 145  ASP145     -0.2456
    156  OD2       42.5800   56.9450   25.3700 O.co2 145  ASP145     -0.2456
@<TRIPOS>BOND
     1    82    80   ar
     2    81    80   ar
     3    80    79    1
     4    78    79    1
     5    78    75    1
     6    58    59    2
     7    58    57    1
     8    75    74    1
     9    75    76    1
    10    56    57    1
    11    57    60    1
    12    74    65   am
    13    76    83   am
    14    76    77    2
    15    83    84    1
    16    86    85    2
    17    65    66    2
    18    65    64    1
    19   100    99    1
    20   101    99    1
    21    60    62    1
    22    60    61    1
    23    99    98    1
    24    64    63    1
    25    64    67    1
    26    85    84    1
    27    85    94   am
    28    50    49    2
    29    84    87    1
    30    87    88    1
    31    70    72   ar
    32    70    68   ar
    33    67    68    1
    34    98    95    1
    35   139   138    2
    36    94    95    1
    37    95    96    1
    38    72    73   ar
    39    49    48    1
    40    68    69   ar
    41    89    88   ar
    42    89    91   ar
    43    88    90   ar
    44    33    34    1
    45   138   137    1
    46    73    71   ar
    47    96    97    2
    48    91    93   ar
    49    69    71   ar
    50   144   145    1
    51    36    35    2
    52    48    47    1
    53    48    51    1
    54   140   137    1
    55   140   141    1
    56   145   148    1
    57   145   146    1
    58    52    51    1
    59    52    53    1
    60    90    92   ar
    61   137   136    1
    62    34    35    1
    63    34    37    1
    64   142   141    1
    65    93    92   ar
    66   141   143    1
    67    55    53   ar
    68   146   149   am
    69   146   147    2
    70    53    54   ar
    71   149   150    1
    72   102   103    1
    73   105   104    2
    74   131   130    2
    75   151   150    1
    76   151   152    2
    77   150   153    1
    78    38    39    1
    79   104   103    1
    80   104   111   am
    81   130   129    1
    82    41    40    2
    83   103   106    1
    84    42    39    1
    85    42    43    1
    86    39    40    1
    87   153   154    1
    88   107   106    1
    89   107   108    1
    90     8     6    1
    91    44    45    1
    92    44    43    1
    93   111   112    1
    94    45    46    1
    95   109   108    2
    96   112   113    1
    97   112   115    1
    98   132   129    1
    99   132   133    1
   100    31    30    1
   101   129   128    1
   102   113   114    2
   103   108   110   am
   104   156   154   ar
   105   154   155   ar
   106   115   116    1
   107     6     5    1
   108   133   135   am
   109   133   134    2
   110   128   121   am
   111   122   121    2
   112    30    32    1
   113    30    27    1
   114     7     5    1
   115   121   120    1
   116     5     2    1
   117    27    28    1
   118    27    26    1
   119    28    29    2
   120   116   117   ar
   121   116   118   ar
   122   119   120    1
   123   120   123    1
   124     2     1    1
   125     2     3    1
   126     3     4    2
   127     3     9   am
   128    23    22    1
   129    23    24    1
   130   123   124    1
   131     9    10    1
   132    22    15   am
   133    24    25    2
   134    10    11    1
   135   127   125   am
   136    15    16    2
   137    15    14    1
   138   124   125    1
   139    12    11    2
   140    11    13   am
   141   125   126    2
   142    14    13    1
   143    14    17    1
   144    17    18    1
   145    18    19    1
   146    20    19   ar
   147    19    21   ar
