@<TRIPOS>MOLECULE
tmp/2c5sA00.pdb
 123 118 0 0 0
SMALL
GASTEIGER

@<TRIPOS>ATOM
      1  N         25.9940   63.1140   79.1700 N.3   178  LEU178     -0.1231
      2  CA        24.9520   64.0510   78.7770 C.3   178  LEU178      0.1693
      3  C         23.6180   63.3270   78.6690 C.2   178  LEU178      0.2592
      4  O         23.3970   62.5560   77.7370 O.2   178  LEU178     -0.2718
      5  CB        25.3100   64.7810   77.4830 C.3   178  LEU178      0.0284
      6  CG        26.2640   65.9580   77.6480 C.3   178  LEU178      0.0019
      7  CD1       26.7520   66.4140   76.2870 C.3   178  LEU178      0.0001
      8  CD2       25.5990   67.1180   78.4010 C.3   178  LEU178      0.0001
      9  N         22.7370   63.5850   79.6380 N.am  179  LEU179     -0.1966
     10  CA        21.4480   62.8930   79.7380 C.3   179  LEU179      0.1728
     11  C         20.2680   63.7420   79.2610 C.2   179  LEU179      0.2616
     12  O         20.0730   64.8850   79.6930 O.2   179  LEU179     -0.2715
     13  CB        21.2170   62.4280   81.1740 C.3   179  LEU179      0.0311
     14  CG        20.1410   61.3940   81.4920 C.3   179  LEU179      0.0022
     15  CD1       20.3480   60.0770   80.7490 C.3   179  LEU179      0.0001
     16  CD2       20.1610   61.1600   82.9860 C.3   179  LEU179      0.0001
     17  N         19.4820   63.1740   78.3550 N.am  180  SER180     -0.1950
     18  CA        18.2910   63.8430   77.8730 C.3   180  SER180      0.1924
     19  C         17.1450   62.8690   78.0000 C.2   180  SER180      0.2314
     20  O         17.3430   61.7230   78.4020 O.2   180  SER180     -0.2863
     21  CB        18.4650   64.2740   76.4240 C.3   180  SER180      0.2116
     22  OG        18.6240   63.1410   75.5870 O.3   180  SER180     -0.2180
     23  N         17.9760   57.0700   73.9370 N.3   184  ASP184     -0.1225
     24  CA        19.3920   56.7940   73.7640 C.3   184  ASP184      0.1805
     25  C         20.2450   57.0700   74.9750 C.2   184  ASP184      0.2598
     26  O         20.9150   56.1670   75.4630 O.2   184  ASP184     -0.2718
     27  CB        19.9400   57.5600   72.5680 C.3   184  ASP184      0.1424
     28  CG        19.1500   57.2930   71.2920 C.2   184  ASP184      0.3668
     29  OD1       18.4260   56.2750   71.2220 O.co2 184  ASP184     -0.2456
     30  OD2       19.2620   58.1110   70.3540 O.co2 184  ASP184     -0.2456
     31  N         20.2210   58.2980   75.4760 N.am  185  SER185     -0.1952
     32  CA        21.2350   58.6970   76.4380 C.3   185  SER185      0.1924
     33  C         21.3010   57.8210   77.6960 C.2   185  SER185      0.2314
     34  O         22.4040   57.4960   78.1330 O.2   185  SER185     -0.2863
     35  CB        21.1790   60.2000   76.7690 C.3   185  SER185      0.2116
     36  OG        19.9510   60.5750   77.3830 O.3   185  SER185     -0.2180
     37  N         24.6130   65.0020   83.3150 N.3   202  VAL202     -0.1231
     38  CA        24.4670   66.4170   83.0610 C.3   202  VAL202      0.1692
     39  C         23.2770   66.6320   82.1300 C.2   202  VAL202      0.2592
     40  O         23.2230   66.0910   81.0140 O.2   202  VAL202     -0.2718
     41  CB        25.7520   67.0120   82.4340 C.3   202  VAL202      0.0266
     42  CG1       25.5770   68.5010   82.1290 C.3   202  VAL202      0.0020
     43  CG2       26.9410   66.8170   83.3550 C.3   202  VAL202      0.0020
     44  N         22.3230   67.4280   82.5980 N.am  203  HIS203     -0.1962
     45  CA        21.1510   67.7100   81.8070 C.3   203  HIS203      0.1787
     46  C         20.9310   69.2050   81.6570 C.2   203  HIS203      0.2620
     47  O         20.8960   69.9340   82.6410 O.2   203  HIS203     -0.2715
     48  CB        19.9240   67.0650   82.4260 C.3   203  HIS203      0.0785
     49  CG        18.6580   67.4050   81.7160 C.ar  203  HIS203      0.0821
     50  ND1       18.3700   66.9380   80.4520 N.ar  203  HIS203     -0.2267
     51  CD2       17.6090   68.1780   82.0820 C.ar  203  HIS203      0.1154
     52  CE1       17.1930   67.4040   80.0710 C.ar  203  HIS203      0.1986
     53  NE2       16.7050   68.1510   81.0470 N.ar  203  HIS203     -0.2212
     54  N         20.7940   69.6460   80.4090 N.am  204  PHE204     -0.1974
     55  CA        20.4390   71.0320   80.1040 C.3   204  PHE204      0.1639
     56  C         18.9350   71.1600   79.9460 C.2   204  PHE204      0.2290
     57  O         18.3150   70.4210   79.1680 O.2   204  PHE204     -0.2864
     58  CB        21.1580   71.5360   78.8460 C.3   204  PHE204      0.0560
     59  CG        22.6410   71.6610   79.0140 C.ar  204  PHE204     -0.0200
     60  CD1       23.4630   70.5270   78.9890 C.ar  204  PHE204     -0.0042
     61  CD2       23.2230   72.9100   79.2150 C.ar  204  PHE204     -0.0042
     62  CE1       24.8420   70.6460   79.1430 C.ar  204  PHE204     -0.0003
     63  CE2       24.5990   73.0370   79.3780 C.ar  204  PHE204     -0.0003
     64  CZ        25.4100   71.9030   79.3480 C.ar  204  PHE204     -0.0000
     65  N         24.3990   73.4140   70.8100 N.3   260  ARG260     -0.1245
     66  CA        25.0790   72.1630   71.1110 C.3   260  ARG260      0.1563
     67  C         26.5570   72.4050   71.3980 C.2   260  ARG260      0.2260
     68  O         27.1220   71.8130   72.3120 O.2   260  ARG260     -0.2867
     69  CB        24.8760   71.1510   69.9840 C.3   260  ARG260      0.0307
     70  CG        23.4400   70.5950   69.8840 C.3   260  ARG260      0.0489
     71  CD        23.1820   69.9850   68.4930 C.3   260  ARG260      0.2205
     72  NE        22.0120   69.0930   68.4360 N.pl3 260  ARG260     -0.0865
     73  CZ        21.4660   68.6130   67.3110 C.cat 260  ARG260      0.5346
     74  NH1       21.9600   68.9260   66.1110 N.pl3 260  ARG260      0.1354
     75  NH2       20.4140   67.8120   67.3830 N.pl3 260  ARG260      0.1354
     76  N         26.5290   73.7560   74.8080 N.3   263  MET263     -0.1245
     77  CA        26.3560   72.6150   75.7150 C.3   263  MET263      0.1570
     78  C         27.6750   71.9000   76.0040 C.2   263  MET263      0.2261
     79  O         28.0170   71.6760   77.1650 O.2   263  MET263     -0.2867
     80  CB        25.3310   71.6190   75.1790 C.3   263  MET263      0.0387
     81  CG        23.8780   71.9800   75.5130 C.3   263  MET263      0.0595
     82  SD        22.6360   70.9840   74.6430 S.3   263  MET263     -0.1393
     83  CE        23.1490   69.3220   75.1230 C.3   263  MET263      0.0692
     84  N         27.8550   60.5780   75.3540 N.3   281  THR281     -0.1203
     85  CA        26.5890   60.9720   74.7410 C.3   281  THR281      0.1994
     86  C         25.8850   59.7490   74.1560 C.2   281  THR281      0.2618
     87  O         26.4920   58.7030   73.9650 O.2   281  THR281     -0.2717
     88  CB        26.7430   62.0480   73.6140 C.3   281  THR281      0.1784
     89  OG1       27.0910   61.4010   72.3880 O.3   281  THR281     -0.2211
     90  CG2       27.7900   63.1190   73.9550 C.3   281  THR281      0.0376
     91  N         24.6010   59.8900   73.8540 N.am  282  GLY282     -0.1942
     92  CA        23.8440   58.8210   73.2300 C.3   282  GLY282      0.2014
     93  C         23.7470   58.9890   71.7260 C.2   282  GLY282      0.2638
     94  O         22.8520   58.4260   71.1080 O.2   282  GLY282     -0.2714
     95  N         24.6600   59.7620   71.1390 N.am  283  GLU283     -0.1977
     96  CA        24.6930   59.9750   69.6900 C.3   283  GLU283      0.1602
     97  C         24.8690   58.6420   68.9850 C.2   283  GLU283      0.2287
     98  O         25.5930   57.7670   69.4660 O.2   283  GLU283     -0.2864
     99  CB        25.8430   60.9110   69.3070 C.3   283  GLU283      0.0415
    100  CG        25.5610   62.4040   69.4670 C.3   283  GLU283      0.1163
    101  CD        26.8470   63.2560   69.5170 C.2   283  GLU283      0.3649
    102  OE1       27.5340   63.2550   70.5630 O.co2 283  GLU283     -0.2457
    103  OE2       27.1760   63.9390   68.5160 O.co2 283  GLU283     -0.2457
    104  N         16.6610   60.8130   63.4270 N.3   289  ALA289     -0.1231
    105  CA        16.8300   61.8820   64.4130 C.3   289  ALA289      0.1694
    106  C         18.2980   62.0440   64.8320 C.2   289  ALA289      0.2593
    107  O         18.6430   62.9180   65.6430 O.2   289  ALA289     -0.2718
    108  CB        15.9340   61.6340   65.6310 C.3   289  ALA289      0.0304
    109  N         19.1650   61.1950   64.2900 N.am  290  SER290     -0.1938
    110  CA        20.5850   61.3070   64.5970 C.3   290  SER290      0.2055
    111  C         21.2310   62.4050   63.7340 C.2   290  SER290      0.2642
    112  O         20.7870   62.6730   62.6060 O.2   290  SER290     -0.2714
    113  CB        21.2930   59.9540   64.4710 C.3   290  SER290      0.2130
    114  OG        21.4660   59.5810   63.1260 O.3   290  SER290     -0.2179
    115  N         22.2340   63.0760   64.2970 N.am  291  GLN291     -0.1976
    116  CA        22.9160   64.1570   63.5980 C.3   291  GLN291      0.1601
    117  C         23.7950   63.5750   62.4930 C.2   291  GLN291      0.2287
    118  O         24.2100   62.4120   62.5540 O.2   291  GLN291     -0.2864
    119  CB        23.7730   64.9720   64.5680 C.3   291  GLN291      0.0394
    120  CG        23.0050   65.7480   65.6490 C.3   291  GLN291      0.0908
    121  CD        23.9340   66.3250   66.7340 C.2   291  GLN291      0.2608
    122  OE1       25.0350   66.8140   66.4340 O.2   291  GLN291     -0.2717
    123  NE2       23.4950   66.2590   67.9970 N.am  291  GLN291     -0.0878
@<TRIPOS>BOND
     1   117   118    2
     2   117   116    1
     3   112   111    2
     4   114   113    1
     5   104   105    1
     6   116   115    1
     7   116   119    1
     8   111   115   am
     9   111   110    1
    10   109   110    1
    11   109   106   am
    12   105   106    1
    13   105   108    1
    14   113   110    1
    15   119   120    1
    16   106   107    2
    17   120   121    1
    18    74    73    1
    19   122   121    2
    20   121   123   am
    21    73    75    1
    22    73    72    2
    23    72    71    1
    24    71    70    1
    25   103   101   ar
    26    97    98    2
    27    97    96    1
    28    99   100    1
    29    99    96    1
    30   100   101    1
    31   101   102   ar
    32    96    95    1
    33    70    69    1
    34    69    66    1
    35    30    28   ar
    36    65    66    1
    37    94    93    2
    38    66    67    1
    39    95    93   am
    40    29    28   ar
    41    28    27    1
    42    67    68    2
    43    93    92    1
    44    89    88    1
    45    27    24    1
    46    92    91    1
    47    88    90    1
    48    88    85    1
    49    24    23    1
    50    24    25    1
    51    91    86   am
    52    87    86    2
    53    86    85    1
    54    82    83    1
    55    82    81    1
    56    85    84    1
    57    76    77    1
    58    25    26    2
    59    25    31   am
    60    80    81    1
    61    80    77    1
    62    31    32    1
    63    22    21    1
    64    77    78    1
    65    78    79    2
    66     7     6    1
    67    21    18    1
    68    32    35    1
    69    32    33    1
    70    35    36    1
    71     5     6    1
    72     5     2    1
    73     6     8    1
    74    33    34    2
    75     4     3    2
    76    18    19    1
    77    18    17    1
    78    19    20    2
    79    17    11   am
    80     3     2    1
    81     3     9   am
    82     2     1    1
    83    58    59    1
    84    58    55    1
    85    60    59   ar
    86    60    62   ar
    87    59    61   ar
    88    62    64   ar
    89    57    56    2
    90    61    63   ar
    91    11    12    2
    92    11    10    1
    93    64    63   ar
    94     9    10    1
    95    10    13    1
    96    56    55    1
    97    52    50   ar
    98    52    53   ar
    99    55    54    1
   100    54    46   am
   101    50    49   ar
   102    15    14    1
   103    40    39    2
   104    53    51   ar
   105    13    14    1
   106    14    16    1
   107    46    45    1
   108    46    47    2
   109    49    51   ar
   110    49    48    1
   111    45    48    1
   112    45    44    1
   113    42    41    1
   114    39    44   am
   115    39    38    1
   116    41    38    1
   117    41    43    1
   118    38    37    1
