@<TRIPOS>MOLECULE
tmp/2c5uA00.pdb
 197 184 0 0 0
SMALL
GASTEIGER

@<TRIPOS>ATOM
      1  N          9.2670   16.2510  -29.2940 N.3    36  TYR36      -0.1227
      2  CA        10.2800   16.4860  -30.3130 C.3    36  TYR36       0.1736
      3  C         11.1850   15.2600  -30.4350 C.2    36  TYR36       0.2595
      4  O         11.2310   14.4200  -29.5370 O.2    36  TYR36      -0.2718
      5  CB        11.1170   17.7130  -29.9380 C.3    36  TYR36       0.0548
      6  CG        12.3620   17.3890  -29.1410 C.ar   36  TYR36      -0.0200
      7  CD1       13.5920   17.2310  -29.7770 C.ar   36  TYR36      -0.0009
      8  CD2       12.3060   17.1970  -27.7560 C.ar   36  TYR36      -0.0009
      9  CE1       14.7370   16.8880  -29.0600 C.ar   36  TYR36       0.0417
     10  CE2       13.4470   16.8530  -27.0330 C.ar   36  TYR36       0.0417
     11  CZ        14.6560   16.6990  -27.6960 C.ar   36  TYR36       0.1957
     12  OH        15.7870   16.3440  -27.0010 O.3    36  TYR36      -0.2866
     13  N         11.8930   15.1520  -31.5540 N.am   37  ASN37      -0.1974
     14  CA        12.8120   14.0380  -31.7660 C.3    37  ASN37       0.1688
     15  C         14.2390   14.5590  -31.8270 C.2    37  ASN37       0.2292
     16  O         15.0700   14.2280  -30.9810 O.2    37  ASN37      -0.2864
     17  CB        12.4930   13.2940  -33.0640 C.3    37  ASN37       0.1181
     18  CG        11.4050   12.2640  -32.8850 C.2    37  ASN37       0.2629
     19  OD1       11.4820   11.4180  -31.9940 O.2    37  ASN37      -0.2716
     20  ND2       10.3870   12.3200  -33.7340 N.am   37  ASN37      -0.0877
     21  N          8.5530   19.8270  -25.0040 N.3    53  ARG53      -0.1245
     22  CA         9.0410   18.5040  -24.6290 C.3    53  ARG53       0.1563
     23  C          8.1450   17.8760  -23.5760 C.2    53  ARG53       0.2260
     24  O          8.5340   17.7330  -22.4150 O.2    53  ARG53      -0.2867
     25  CB        10.4830   18.5640  -24.1130 C.3    53  ARG53       0.0307
     26  CG        11.0560   17.1950  -23.7170 C.3    53  ARG53       0.0489
     27  CD        12.5020   17.2930  -23.2270 C.3    53  ARG53       0.2205
     28  NE        13.0720   15.9850  -22.8890 N.pl3  53  ARG53      -0.0865
     29  CZ        12.9440   15.3770  -21.7110 C.cat  53  ARG53       0.5346
     30  NH1       12.2690   15.9530  -20.7240 N.pl3  53  ARG53       0.1354
     31  NH2       13.4860   14.1800  -21.5220 N.pl3  53  ARG53       0.1354
     32  N         12.8360   22.2130  -21.7550 N.3    71  LYS71      -0.1231
     33  CA        14.0230   21.4830  -22.1850 C.3    71  LYS71       0.1693
     34  C         15.2370   22.2210  -21.6080 C.2    71  LYS71       0.2592
     35  O         15.2900   23.4500  -21.6460 O.2    71  LYS71      -0.2718
     36  CB        14.1250   21.4760  -23.7170 C.3    71  LYS71       0.0285
     37  CG        15.4430   20.9220  -24.2820 C.3    71  LYS71       0.0035
     38  CD        15.4730   19.3970  -24.2760 C.3    71  LYS71       0.0206
     39  CE        16.7940   18.8420  -24.7990 C.3    71  LYS71       0.1093
     40  NZ        17.8760   18.8330  -23.7700 N.3    71  LYS71      -0.1314
     41  N         16.1900   21.4840  -21.0430 N.am   72  PHE72      -0.1976
     42  CA        17.4100   22.1060  -20.5340 C.3    72  PHE72       0.1639
     43  C         18.6110   21.2840  -20.9840 C.2    72  PHE72       0.2290
     44  O         18.4580   20.1350  -21.4100 O.2    72  PHE72      -0.2864
     45  CB        17.3750   22.3170  -19.0030 C.3    72  PHE72       0.0560
     46  CG        17.0980   21.0860  -18.2020 C.ar   72  PHE72      -0.0200
     47  CD1       18.1360   20.3960  -17.5880 C.ar   72  PHE72      -0.0042
     48  CD2       15.7860   20.6550  -17.9960 C.ar   72  PHE72      -0.0042
     49  CE1       17.8760   19.2950  -16.7730 C.ar   72  PHE72      -0.0003
     50  CE2       15.5140   19.5520  -17.1830 C.ar   72  PHE72      -0.0003
     51  CZ        16.5630   18.8730  -16.5690 C.ar   72  PHE72      -0.0000
     52  N         20.9200   19.2840   -7.5540 N.3    92  LEU92      -0.1231
     53  CA        20.0820   18.1620   -7.1660 C.3    92  LEU92       0.1693
     54  C         20.6460   16.8980   -7.7870 C.2    92  LEU92       0.2593
     55  O         21.2370   16.9310   -8.8640 O.2    92  LEU92      -0.2718
     56  CB        18.6460   18.3590   -7.6550 C.3    92  LEU92       0.0284
     57  CG        17.8660   19.6160   -7.2490 C.3    92  LEU92       0.0019
     58  CD1       16.5740   19.6780   -8.0780 C.3    92  LEU92       0.0001
     59  CD2       17.5430   19.5980   -5.7430 C.3    92  LEU92       0.0001
     60  N         20.4790   15.7830   -7.0920 N.am   93  THR93      -0.1939
     61  CA        20.9460   14.5040   -7.6000 C.3    93  THR93       0.2028
     62  C         20.1960   14.2600   -8.9050 C.2    93  THR93       0.2642
     63  O         18.9700   14.3770   -8.9490 O.2    93  THR93      -0.2714
     64  CB        20.6050   13.3660   -6.6120 C.3    93  THR93       0.1808
     65  OG1       21.3550   13.5450   -5.4030 O.3    93  THR93      -0.2208
     66  CG2       20.9120   11.9960   -7.2210 C.3    93  THR93       0.0379
     67  N         20.9160   13.9680   -9.9810 N.am   94  LYS94      -0.1963
     68  CA        20.2220   13.6830  -11.2260 C.3    94  LYS94       0.1728
     69  C         19.9310   12.1830  -11.2250 C.2    94  LYS94       0.2616
     70  O         20.8330   11.3520  -11.3740 O.2    94  LYS94      -0.2715
     71  CB        21.0590   14.0670  -12.4490 C.3    94  LYS94       0.0311
     72  CG        20.2400   14.0390  -13.7550 C.3    94  LYS94       0.0038
     73  CD        20.9760   14.6700  -14.9340 C.3    94  LYS94       0.0206
     74  CE        20.0600   14.8170  -16.1430 C.3    94  LYS94       0.1093
     75  NZ        19.5590   13.5010  -16.6550 N.3    94  LYS94      -0.1314
     76  N         18.6620   11.8500  -11.0170 N.am   95  GLU95      -0.1977
     77  CA        18.2020   10.4670  -10.9780 C.3    95  GLU95       0.1602
     78  C         18.1850    9.9210  -12.4090 C.2    95  GLU95       0.2287
     79  O         17.9390   10.6680  -13.3470 O.2    95  GLU95      -0.2864
     80  CB        16.8080   10.4300  -10.3460 C.3    95  GLU95       0.0415
     81  CG        16.6530    9.3870   -9.2570 C.3    95  GLU95       0.1163
     82  CD        17.6940    9.5120   -8.1530 C.2    95  GLU95       0.3649
     83  OE1       17.5220   10.3210   -7.2080 O.co2  95  GLU95      -0.2457
     84  OE2       18.6980    8.7870   -8.2450 O.co2  95  GLU95      -0.2457
     85  N         11.1110   10.3260  -16.9550 N.3    99  LEU99      -0.1245
     86  CA        10.2560   11.3580  -16.4020 C.3    99  LEU99       0.1561
     87  C          8.7770   10.9840  -16.4700 C.2    99  LEU99       0.2260
     88  O          8.3080   10.4740  -17.4860 O.2    99  LEU99      -0.2867
     89  CB        10.4360   12.6650  -17.1780 C.3    99  LEU99       0.0270
     90  CG         9.4700   13.7920  -16.7920 C.3    99  LEU99       0.0019
     91  CD1        9.7790   14.2660  -15.3690 C.3    99  LEU99       0.0001
     92  CD2        9.5970   14.9500  -17.7740 C.3    99  LEU99       0.0001
     93  N          7.2150   11.1860  -21.0530 N.3   114  LYS114     -0.1245
     94  CA         7.5380   12.2420  -22.0030 C.3   114  LYS114      0.1561
     95  C          6.5010   12.4130  -23.1080 C.2   114  LYS114      0.2260
     96  O          5.8970   13.4800  -23.2450 O.2   114  LYS114     -0.2867
     97  CB         8.9010   11.9870  -22.6580 C.3   114  LYS114      0.0271
     98  CG         9.2640   13.0510  -23.6930 C.3   114  LYS114      0.0035
     99  CD        10.5260   12.7220  -24.4810 C.3   114  LYS114      0.0206
    100  CE        10.7450   13.7500  -25.5950 C.3   114  LYS114      0.1093
    101  NZ        11.9530   13.4770  -26.4320 N.3   114  LYS114     -0.1314
    102  N         10.9430   11.2350  -11.2820 N.3   152  GLU152     -0.1245
    103  CA        11.8160   10.3820  -12.0700 C.3   152  GLU152      0.1567
    104  C         11.3390    8.9820  -11.7210 C.2   152  GLU152      0.2260
    105  O         11.3490    8.5950  -10.5520 O.2   152  GLU152     -0.2867
    106  CB        13.2810   10.4860  -11.6590 C.3   152  GLU152      0.0388
    107  CG        14.1860    9.7020  -12.6070 C.3   152  GLU152      0.1160
    108  CD        14.2420   10.3260  -13.9990 C.2   152  GLU152      0.3649
    109  OE1       13.5510   11.3410  -14.2290 O.co2 152  GLU152     -0.2457
    110  OE2       14.9790    9.8160  -14.8670 O.co2 152  GLU152     -0.2457
    111  N         10.9250   15.4000   -8.3550 N.3   171  LEU171     -0.1231
    112  CA        11.9610   16.3050   -8.8370 C.3   171  LEU171      0.1693
    113  C         11.5870   17.7640   -8.6590 C.2   171  LEU171      0.2592
    114  O         12.3910   18.5610   -8.1690 O.2   171  LEU171     -0.2718
    115  CB        12.2390   16.0400  -10.3160 C.3   171  LEU171      0.0284
    116  CG        12.5630   14.5900  -10.6720 C.3   171  LEU171      0.0019
    117  CD1       12.8000   14.4850  -12.1790 C.3   171  LEU171      0.0001
    118  CD2       13.7990   14.1180   -9.8800 C.3   171  LEU171      0.0001
    119  N         10.3630   18.1080   -9.0560 N.am  172  ASN172     -0.1974
    120  CA         9.8920   19.4870   -8.9590 C.3   172  ASN172      0.1688
    121  C          8.3890   19.5740   -9.1800 C.2   172  ASN172      0.2292
    122  O          7.7490   18.5940   -9.5570 O.2   172  ASN172     -0.2864
    123  CB        10.6100   20.3580  -10.0020 C.3   172  ASN172      0.1181
    124  CG        10.5690   19.7520  -11.3950 C.2   172  ASN172      0.2629
    125  OD1       11.5410   19.1500  -11.8530 O.2   172  ASN172     -0.2716
    126  ND2        9.4320   19.8930  -12.0690 N.am  172  ASN172     -0.0877
    127  N         13.7490   14.4520   -4.2490 N.3   198  VAL198     -0.1245
    128  CA        15.1090   14.2400   -4.7050 C.3   198  VAL198      0.1561
    129  C         16.0170   15.0660   -3.8010 C.2   198  VAL198      0.2260
    130  O         15.6430   16.1470   -3.3370 O.2   198  VAL198     -0.2867
    131  CB        15.2840   14.6670   -6.1900 C.3   198  VAL198      0.0252
    132  CG1       15.1710   16.1730   -6.3230 C.3   198  VAL198      0.0019
    133  CG2       16.6130   14.1640   -6.7210 C.3   198  VAL198      0.0019
    134  N         24.9640    9.5100  -12.2200 N.3   219  GLU219     -0.1245
    135  CA        24.8200   10.1490  -13.5180 C.3   219  GLU219      0.1567
    136  C         25.3970   11.5530  -13.3820 C.2   219  GLU219      0.2260
    137  O         26.1750   12.0080  -14.2230 O.2   219  GLU219     -0.2867
    138  CB        23.3540   10.2540  -13.9430 C.3   219  GLU219      0.0388
    139  CG        23.2080   10.7030  -15.3890 C.3   219  GLU219      0.1160
    140  CD        21.7760   10.9780  -15.7960 C.2   219  GLU219      0.3649
    141  OE1       20.8640   10.3290  -15.2470 O.co2 219  GLU219     -0.2457
    142  OE2       21.5720   11.8360  -16.6810 O.co2 219  GLU219     -0.2457
    143  N         21.6910   18.1470  -11.3980 N.3   222  VAL222     -0.1245
    144  CA        20.9620   19.1840  -12.1120 C.3   222  VAL222      0.1561
    145  C         21.1280   20.4360  -11.2620 C.2   222  VAL222      0.2260
    146  O         20.7880   20.4500  -10.0730 O.2   222  VAL222     -0.2867
    147  CB        19.4740   18.8400  -12.2440 C.3   222  VAL222      0.0252
    148  CG1       18.7050   20.0460  -12.7420 C.3   222  VAL222      0.0019
    149  CG2       19.3060   17.6760  -13.2150 C.3   222  VAL222      0.0019
    150  N         17.8110   25.8270  -15.3670 N.3   229  HIS229     -0.1241
    151  CA        18.5880   24.6130  -15.1190 C.3   229  HIS229      0.1621
    152  C         19.6790   24.3390  -16.1440 C.2   229  HIS229      0.2264
    153  O         19.6730   24.8670  -17.2560 O.2   229  HIS229     -0.2867
    154  CB        17.6960   23.3550  -15.1370 C.3   229  HIS229      0.0745
    155  CG        16.5100   23.4140  -14.2290 C.ar  229  HIS229      0.0817
    156  ND1       15.3120   23.9820  -14.6060 N.ar  229  HIS229     -0.2268
    157  CD2       16.3270   22.9500  -12.9700 C.ar  229  HIS229      0.1154
    158  CE1       14.4420   23.8650  -13.6200 C.ar  229  HIS229      0.1986
    159  NE2       15.0330   23.2420  -12.6150 N.ar  229  HIS229     -0.2212
    160  N         22.8360   20.8430  -16.6240 N.3   231  LYS231     -0.1245
    161  CA        23.2590   19.6190  -15.9730 C.3   231  LYS231      0.1561
    162  C         24.7230   19.2650  -16.1660 C.2   231  LYS231      0.2260
    163  O         25.3810   19.7400  -17.0890 O.2   231  LYS231     -0.2867
    164  CB        22.3680   18.4630  -16.4380 C.3   231  LYS231      0.0271
    165  CG        22.2960   18.3080  -17.9370 C.3   231  LYS231      0.0035
    166  CD        20.9410   17.7790  -18.3860 C.3   231  LYS231      0.0206
    167  CE        20.8480   17.7700  -19.9080 C.3   231  LYS231      0.1093
    168  NZ        19.5380   17.2880  -20.4220 N.3   231  LYS231     -0.1314
    169  N         26.9810   15.7370  -16.1370 N.3   233  LYS233     -0.1245
    170  CA        26.9570   14.2860  -16.0960 C.3   233  LYS233      0.1561
    171  C         28.4010   13.8150  -16.0160 C.2   233  LYS233      0.2260
    172  O         29.2840   14.4360  -16.5970 O.2   233  LYS233     -0.2867
    173  CB        26.2870   13.7110  -17.3510 C.3   233  LYS233      0.0271
    174  CG        24.8150   14.0910  -17.5010 C.3   233  LYS233      0.0035
    175  CD        24.1500   13.3240  -18.6400 C.3   233  LYS233      0.0206
    176  CE        22.7090   13.7820  -18.8190 C.3   233  LYS233      0.1093
    177  NZ        21.9430   12.8780  -19.7020 N.3   233  LYS233     -0.1314
    178  N         20.1010    9.9790  -29.5460 N.3   260  GLY260     -0.1225
    179  CA        19.8280   11.2290  -28.8520 C.3   260  GLY260      0.1811
    180  C         20.7490   11.4760  -27.6690 C.2   260  GLY260      0.2280
    181  O         20.3910   12.1810  -26.7260 O.2   260  GLY260     -0.2866
    182  N         24.3650   14.9690  -27.3460 N.3   263  ASP263     -0.1225
    183  CA        24.3960   16.2060  -26.5670 C.3   263  ASP263      0.1805
    184  C         25.3040   16.0180  -25.3440 C.2   263  ASP263      0.2597
    185  O         26.1040   16.8910  -25.0150 O.2   263  ASP263     -0.2718
    186  CB        22.9840   16.6060  -26.1090 C.3   263  ASP263      0.1424
    187  CG        22.1480   15.4190  -25.6310 C.2   263  ASP263      0.3668
    188  OD1       22.6370   14.2680  -25.6230 O.co2 263  ASP263     -0.2456
    189  OD2       20.9820   15.6480  -25.2650 O.co2 263  ASP263     -0.2456
    190  N         25.1740   14.8690  -24.6840 N.am  264  ASP264     -0.1974
    191  CA        25.9850   14.5380  -23.5150 C.3   264  ASP264      0.1709
    192  C         27.4420   14.3780  -23.9280 C.2   264  ASP264      0.2293
    193  O         28.3530   14.8430  -23.2410 O.2   264  ASP264     -0.2864
    194  CB        25.5170   13.2180  -22.8730 C.3   264  ASP264      0.1436
    195  CG        24.1640   13.3360  -22.2090 C.2   264  ASP264      0.3671
    196  OD1       23.6550   14.4730  -22.0940 O.co2 264  ASP264     -0.2456
    197  OD2       23.6150   12.2930  -21.7940 O.co2 264  ASP264     -0.2456
@<TRIPOS>BOND
     1    20    18   am
     2    17    18    1
     3    17    14    1
     4    18    19    2
     5    15    14    1
     6    15    16    2
     7    14    13    1
     8    13     3   am
     9     3     2    1
    10     3     4    2
    11     2     5    1
    12     2     1    1
    13     5     6    1
    14     7     6   ar
    15     7     9   ar
    16   178   179    1
    17     6     8   ar
    18     9    11   ar
    19   179   180    1
    20     8    10   ar
    21    11    10   ar
    22    11    12    1
    23   180   181    2
    24   182   183    1
    25   183   186    1
    26   183   184    1
    27   101   100    1
    28   186   187    1
    29   187   188   ar
    30   187   189   ar
    31   100    99    1
    32   184   185    2
    33   184   190   am
    34    21    22    1
    35    39    38    1
    36    39    40    1
    37   190   191    1
    38    22    25    1
    39    22    23    1
    40    99    98    1
    41    37    38    1
    42    37    36    1
    43    25    26    1
    44   192   191    1
    45   192   193    2
    46    36    33    1
    47    26    27    1
    48    98    97    1
    49    23    24    2
    50   191   194    1
    51    96    95    2
    52    27    28    1
    53    95    94    1
    54    28    29    2
    55   194   195    1
    56    97    94    1
    57   195   196   ar
    58   195   197   ar
    59    33    32    1
    60    33    34    1
    61    94    93    1
    62    29    31    1
    63    29    30    1
    64    35    34    2
    65    34    41   am
    66    44    43    2
    67    41    42    1
    68    43    42    1
    69    42    45    1
    70   168   167    1
    71   167   166    1
    72   177   176    1
    73    45    46    1
    74   176   175    1
    75   175   174    1
    76   166   165    1
    77    46    48   ar
    78    46    47   ar
    79    48    50   ar
    80   165   164    1
    81    92    90    1
    82    47    49   ar
    83   174   173    1
    84    88    87    2
    85   173   170    1
    86   153   152    2
    87    50    51   ar
    88    89    90    1
    89    89    86    1
    90   163   162    2
    91    85    86    1
    92    90    91    1
    93    49    51   ar
    94   142   140   ar
    95    75    74    1
    96   160   161    1
    97   172   171    2
    98    87    86    1
    99   164   161    1
   100   162   161    1
   101   152   151    1
   102    74    73    1
   103   169   170    1
   104   170   171    1
   105   140   139    1
   106   140   141   ar
   107   139   138    1
   108   150   151    1
   109   154   151    1
   110   154   155    1
   111    73    72    1
   112   110   108   ar
   113   156   155   ar
   114   156   158   ar
   115   155   157   ar
   116   109   108   ar
   117   137   136    2
   118   108   107    1
   119   138   135    1
   120    72    71    1
   121   158   159   ar
   122   135   136    1
   123   135   134    1
   124    79    78    2
   125   149   147    1
   126   157   159   ar
   127   148   147    1
   128   107   106    1
   129    71    68    1
   130    78    77    1
   131   147   144    1
   132   117   116    1
   133   144   143    1
   134   144   145    1
   135   103   104    1
   136   103   106    1
   137   103   102    1
   138   126   124   am
   139   125   124    2
   140   104   105    2
   141   124   123    1
   142    70    69    2
   143   145   146    2
   144    68    69    1
   145    68    67    1
   146    69    76   am
   147    76    77    1
   148    77    80    1
   149   116   115    1
   150   116   118    1
   151    80    81    1
   152   115   112    1
   153   123   120    1
   154    67    62   am
   155   122   121    2
   156    81    82    1
   157   121   120    1
   158   119   120    1
   159   119   113   am
   160    63    62    2
   161    62    61    1
   162    55    54    2
   163   112   113    1
   164   112   111    1
   165   113   114    2
   166    84    82   ar
   167    82    83   ar
   168    58    57    1
   169    54    53    1
   170    54    60   am
   171    56    57    1
   172    56    53    1
   173    61    60    1
   174    61    64    1
   175    52    53    1
   176    57    59    1
   177    66    64    1
   178   133   131    1
   179    64    65    1
   180   132   131    1
   181   131   128    1
   182   128   127    1
   183   128   129    1
   184   129   130    2
