@<TRIPOS>MOLECULE
tmp/2c5vA00.pdb
 182 174 0 0 0
SMALL
GASTEIGER

@<TRIPOS>ATOM
      1  N         -0.2760   46.6480    8.8770 N.3    10  ILE10      -0.1231
      2  CA        -0.9390   47.1580    7.6850 C.3    10  ILE10       0.1692
      3  C         -0.6450   46.3670    6.4170 C.2    10  ILE10       0.2593
      4  O         -0.6520   46.9180    5.3240 O.2    10  ILE10      -0.2718
      5  CB        -0.5270   48.5940    7.4020 C.3    10  ILE10       0.0266
      6  CG1        0.8670   48.5980    6.7480 C.3    10  ILE10       0.0019
      7  CG2       -0.6390   49.3980    8.6780 C.3    10  ILE10       0.0020
      8  CD1        1.6510   49.9250    6.7890 C.3    10  ILE10       0.0001
      9  N         -0.4110   45.0720    6.5530 N.am   11  GLY11      -0.1942
     10  CA        -0.4180   44.1990    5.4000 C.3    11  GLY11       0.2014
     11  C          0.7790   43.2870    5.4600 C.2    11  GLY11       0.2639
     12  O          1.7600   43.6010    6.1230 O.2    11  GLY11      -0.2714
     13  N          0.6290   42.1110    4.8660 N.am   12  GLU12      -0.1963
     14  CA         1.7160   41.1620    4.7410 C.3    12  GLU12       0.1733
     15  C          2.3080   41.3430    3.3440 C.2    12  GLU12       0.2617
     16  O          1.8990   42.2240    2.5850 O.2    12  GLU12      -0.2715
     17  CB         1.1840   39.7350    4.9510 C.3    12  GLU12       0.0429
     18  CG         1.3100   39.1780    6.3830 C.3    12  GLU12       0.1163
     19  CD        -0.0320   39.0430    7.1100 C.2    12  GLU12       0.3649
     20  OE1       -0.5600   40.0470    7.6370 O.co2  12  GLU12      -0.2457
     21  OE2       -0.5450   37.9050    7.2310 O.co2  12  GLU12      -0.2457
     22  N          3.2980   40.5320    3.0040 N.am   13  GLY13      -0.1940
     23  CA         3.7850   40.5110    1.6300 C.3    13  GLY13       0.2014
     24  C          4.9780   39.5910    1.4930 C.2    13  GLY13       0.2639
     25  O          5.1150   38.6180    2.2470 O.2    13  GLY13      -0.2714
     26  N          5.8490   39.9060    0.5390 N.am   14  THR14      -0.1950
     27  CA         7.1750   39.3180    0.5390 C.3    14  THR14       0.1897
     28  C          7.5200   39.1310    2.0420 C.2    14  THR14       0.2313
     29  O          6.7640   39.5910    2.8980 O.2    14  THR14      -0.2863
     30  CB         8.1620   40.2270   -0.2660 C.3    14  THR14       0.1794
     31  OG1        7.8890   41.6040    0.0170 O.3    14  THR14      -0.2208
     32  CG2        7.9880   40.0140   -1.7820 C.3    14  THR14       0.0378
     33  N          4.0720   43.9130    7.7380 N.3    18  VAL18      -0.1245
     34  CA         4.3650   45.3390    7.6770 C.3    18  VAL18       0.1561
     35  C          3.6170   46.1100    8.7650 C.2    18  VAL18       0.2260
     36  O          2.3790   46.0540    8.8260 O.2    18  VAL18      -0.2867
     37  CB         3.9380   45.9320    6.3250 C.3    18  VAL18       0.0252
     38  CG1        4.3660   47.3820    6.2560 C.3    18  VAL18       0.0019
     39  CG2        4.4980   45.1210    5.1520 C.3    18  VAL18       0.0019
     40  N          6.6290   52.9960    7.8260 N.3    31  ALA31      -0.1245
     41  CA         6.1250   51.6490    7.6180 C.3    31  ALA31       0.1562
     42  C          7.2660   50.6710    7.7940 C.2    31  ALA31       0.2260
     43  O          8.2030   50.7060    7.0040 O.2    31  ALA31      -0.2867
     44  CB         5.5440   51.5260    6.2380 C.3    31  ALA31       0.0290
     45  N          8.8130   47.0760    7.6410 N.3    33  LYS33      -0.1245
     46  CA         8.6630   45.7350    7.1120 C.3    33  LYS33       0.1561
     47  C          9.7470   44.9140    7.8050 C.2    33  LYS33       0.2260
     48  O         10.9310   45.2790    7.8230 O.2    33  LYS33      -0.2867
     49  CB         8.7400   45.7150    5.5830 C.3    33  LYS33       0.0271
     50  CG         9.4480   44.5040    4.9950 C.3    33  LYS33       0.0035
     51  CD         8.8200   44.0130    3.6740 C.3    33  LYS33       0.0206
     52  CE         8.7550   45.1290    2.6130 C.3    33  LYS33       0.1093
     53  NZ         8.5490   44.7000    1.1860 N.3    33  LYS33      -0.1314
     54  N         15.2800   44.3270   -2.9830 N.3    51  GLU51      -0.1245
     55  CA        14.4500   45.4670   -2.7790 C.3    51  GLU51       0.1567
     56  C         15.2880   46.4920   -2.0500 C.2    51  GLU51       0.2260
     57  O         15.1750   47.6830   -2.3370 O.2    51  GLU51      -0.2867
     58  CB        13.1730   45.1340   -2.0090 C.3    51  GLU51       0.0388
     59  CG        12.1480   46.3140   -1.9950 C.3    51  GLU51       0.1160
     60  CD        10.8930   46.1410   -1.0930 C.2    51  GLU51       0.3649
     61  OE1       11.0240   45.5540    0.0140 O.co2  51  GLU51      -0.2457
     62  OE2        9.8390   46.7720   -1.4020 O.co2  51  GLU51      -0.2457
     63  N          8.3720   54.7200   -3.6430 N.3    64  VAL64      -0.1245
     64  CA         8.3920   54.7210   -2.1970 C.3    64  VAL64       0.1561
     65  C          9.8340   54.7530   -1.6550 C.2    64  VAL64       0.2260
     66  O         10.6850   53.9800   -2.0830 O.2    64  VAL64      -0.2867
     67  CB         7.6900   53.4660   -1.6810 C.3    64  VAL64       0.0252
     68  CG1        8.4540   52.2300   -2.1440 C.3    64  VAL64       0.0019
     69  CG2        7.6480   53.5140   -0.1860 C.3    64  VAL64       0.0019
     70  N         10.2580   52.2160    5.7730 N.3    80  PHE80      -0.1227
     71  CA         9.8030   52.9650    4.5870 C.3    80  PHE80       0.1736
     72  C          8.9560   54.1600    4.9690 C.2    80  PHE80       0.2595
     73  O          8.3660   54.1870    6.0510 O.2    80  PHE80      -0.2718
     74  CB         8.9800   52.1080    3.6520 C.3    80  PHE80       0.0547
     75  CG         9.7030   50.9050    3.1330 C.ar   80  PHE80      -0.0202
     76  CD1        9.7160   49.7220    3.8550 C.ar   80  PHE80      -0.0042
     77  CD2       10.2560   50.9150    1.8740 C.ar   80  PHE80      -0.0042
     78  CE1       10.2830   48.5870    3.3230 C.ar   80  PHE80      -0.0003
     79  CE2       10.8760   49.8010    1.3620 C.ar   80  PHE80      -0.0003
     80  CZ        10.8670   48.6260    2.0780 C.ar   80  PHE80      -0.0000
     81  N          8.9440   55.1770    4.1150 N.am   81  GLU81      -0.1965
     82  CA         8.0570   56.3030    4.3670 C.3    81  GLU81       0.1733
     83  C          6.6620   55.7040    4.3700 C.2    81  GLU81       0.2616
     84  O          6.3260   54.8280    3.5640 O.2    81  GLU81      -0.2715
     85  CB         8.1470   57.3890    3.2990 C.3    81  GLU81       0.0429
     86  CG         7.5390   56.9640    1.9590 C.3    81  GLU81       0.1163
     87  CD         7.5590   58.0560    0.8890 C.2    81  GLU81       0.3649
     88  OE1        8.1450   57.8170   -0.2030 O.co2  81  GLU81      -0.2457
     89  OE2        6.9520   59.1250    1.1440 O.co2  81  GLU81      -0.2457
     90  N          5.8380   56.2030    5.2740 N.am   82  PHE82      -0.1960
     91  CA         4.4870   55.6980    5.3920 C.3    82  PHE82       0.1771
     92  C          3.5210   56.3050    4.3730 C.2    82  PHE82       0.2619
     93  O          3.5070   57.5080    4.1630 O.2    82  PHE82      -0.2715
     94  CB         3.9750   55.9870    6.7890 C.3    82  PHE82       0.0574
     95  CG         2.5250   55.7140    6.9370 C.ar   82  PHE82      -0.0200
     96  CD1        1.6000   56.7150    6.7120 C.ar   82  PHE82      -0.0042
     97  CD2        2.0780   54.4190    7.1830 C.ar   82  PHE82      -0.0042
     98  CE1        0.2520   56.4550    6.8320 C.ar   82  PHE82      -0.0003
     99  CE2        0.7470   54.1550    7.3220 C.ar   82  PHE82      -0.0003
    100  CZ        -0.1680   55.1590    7.0660 C.ar   82  PHE82      -0.0000
    101  N          2.7750   55.4690    3.6670 N.am   83  LEU83      -0.1963
    102  CA         1.7270   55.9710    2.7980 C.3    83  LEU83       0.1728
    103  C          0.4950   55.1770    3.1380 C.2    83  LEU83       0.2616
    104  O          0.6120   54.0580    3.6180 O.2    83  LEU83      -0.2715
    105  CB         2.0640   55.7770    1.3120 C.3    83  LEU83       0.0311
    106  CG         3.3170   56.4720    0.7680 C.3    83  LEU83       0.0022
    107  CD1        4.5270   55.7020    1.2480 C.3    83  LEU83       0.0001
    108  CD2        3.3440   56.5450   -0.7480 C.3    83  LEU83       0.0001
    109  N         -0.6450   55.6790    2.6800 N.am   84  HIS84      -0.1959
    110  CA        -1.9160   55.5460    3.3780 C.3    84  HIS84       0.1787
    111  C         -2.5310   54.1940    3.1020 C.2    84  HIS84       0.2620
    112  O         -2.9280   53.4740    4.0200 O.2    84  HIS84      -0.2715
    113  CB        -2.8720   56.6360    2.9010 C.3    84  HIS84       0.0785
    114  CG        -3.0370   57.7230    3.9050 C.ar   84  HIS84       0.0821
    115  ND1       -2.0240   58.6180    4.1910 N.ar   84  HIS84      -0.2267
    116  CD2       -3.9570   57.8700    4.8880 C.ar   84  HIS84       0.1154
    117  CE1       -2.3580   59.3310    5.2530 C.ar   84  HIS84       0.1986
    118  NE2       -3.5310   58.9020    5.6900 N.ar   84  HIS84      -0.2212
    119  N         -2.7270   53.9370    1.8160 N.am   85  GLN85      -0.1963
    120  CA        -3.1180   52.6290    1.3300 C.3    85  GLN85       0.1733
    121  C         -2.5060   52.4100   -0.0210 C.2    85  GLN85       0.2616
    122  O         -1.7580   53.2390   -0.5110 O.2    85  GLN85      -0.2715
    123  CB        -4.6290   52.5210    1.1330 C.3    85  GLN85       0.0408
    124  CG        -5.3840   53.8130    0.9700 C.3    85  GLN85       0.0908
    125  CD        -6.8600   53.5280    0.7680 C.2    85  GLN85       0.2608
    126  OE1       -7.7140   54.4010    0.9510 O.2    85  GLN85      -0.2717
    127  NE2       -7.1720   52.2790    0.4270 N.am   85  GLN85      -0.0878
    128  N         -3.1590   51.5180   -0.7360 N.am   86  ASP86      -0.1971
    129  CA        -2.5830   50.8730   -1.8840 C.3    86  ASP86       0.1709
    130  C         -3.6810   50.8790   -2.9480 C.2    86  ASP86       0.2293
    131  O         -4.8650   50.8080   -2.6160 O.2    86  ASP86      -0.2864
    132  CB        -2.1980   49.4460   -1.4750 C.3    86  ASP86       0.1436
    133  CG        -3.4060   48.5160   -1.3680 C.2    86  ASP86       0.3671
    134  OD1       -4.2560   48.5700   -2.2830 O.co2  86  ASP86      -0.2456
    135  OD2       -3.4920   47.7010   -0.4160 O.co2  86  ASP86      -0.2456
    136  N         -7.0660   48.5930   -2.7550 N.3    89  LYS89      -0.1245
    137  CA        -8.1060   49.0500   -1.8530 C.3    89  LYS89       0.1561
    138  C         -8.8080   50.2680   -2.4360 C.2    89  LYS89       0.2260
    139  O        -10.0400   50.2970   -2.5140 O.2    89  LYS89      -0.2867
    140  CB        -7.4960   49.4260   -0.5100 C.3    89  LYS89       0.0271
    141  CG        -7.7720   48.4280    0.6040 C.3    89  LYS89       0.0035
    142  CD        -6.9400   47.1550    0.4920 C.3    89  LYS89       0.0206
    143  CE        -7.1700   46.2810    1.7200 C.3    89  LYS89       0.1093
    144  NZ        -5.9190   45.5930    2.1480 N.3    89  LYS89      -0.1314
    145  N         -1.7950   46.2460   -5.7670 N.3   131  GLN131     -0.1231
    146  CA        -1.4810   46.0460   -4.3740 C.3   131  GLN131      0.1698
    147  C         -0.0790   46.6270   -4.0770 C.2   131  GLN131      0.2592
    148  O          0.1820   47.1360   -2.9880 O.2   131  GLN131     -0.2718
    149  CB        -1.5930   44.5380   -4.1080 C.3   131  GLN131      0.0381
    150  CG        -1.7180   43.7010   -5.4080 C.3   131  GLN131      0.0905
    151  CD        -3.1500   43.2980   -5.8310 C.2   131  GLN131      0.2608
    152  OE1       -3.9450   44.1250   -6.2840 O.2   131  GLN131     -0.2717
    153  NE2       -3.3860   41.9910   -5.8940 N.am  131  GLN131     -0.0878
    154  N          0.7460   46.7270   -5.1180 N.am  132  ASN132     -0.1974
    155  CA         2.1340   47.1920   -5.0360 C.3   132  ASN132      0.1688
    156  C          2.2800   48.6350   -5.4780 C.2   132  ASN132      0.2292
    157  O          3.3400   49.0220   -5.9670 O.2   132  ASN132     -0.2864
    158  CB         3.0210   46.3710   -5.9880 C.3   132  ASN132      0.1181
    159  CG         3.2260   44.9440   -5.5200 C.2   132  ASN132      0.2629
    160  OD1        3.2130   44.6680   -4.3280 O.2   132  ASN132     -0.2716
    161  ND2        3.4400   44.0380   -6.4620 N.am  132  ASN132     -0.0877
    162  N          1.0930   52.3900   -4.2490 N.3   134  LEU134     -0.1245
    163  CA         0.7520   52.9610   -2.9380 C.3   134  LEU134      0.1561
    164  C          0.3910   54.4200   -3.0760 C.2   134  LEU134      0.2260
    165  O          1.2550   55.2200   -3.4130 O.2   134  LEU134     -0.2867
    166  CB         1.9420   52.9200   -1.9820 C.3   134  LEU134      0.0270
    167  CG         2.4120   51.5830   -1.4350 C.3   134  LEU134      0.0019
    168  CD1        3.0440   51.8320   -0.1030 C.3   134  LEU134      0.0001
    169  CD2        1.2590   50.6330   -1.3140 C.3   134  LEU134      0.0001
    170  N          6.1860   50.5010   -5.3270 N.3   144  ALA144     -0.1231
    171  CA         6.5020   49.8920   -4.0680 C.3   144  ALA144      0.1694
    172  C          6.6330   48.3840   -4.2520 C.2   144  ALA144      0.2592
    173  O          6.5190   47.8520   -5.3610 O.2   144  ALA144     -0.2718
    174  CB         5.4050   50.2040   -3.0830 C.3   144  ALA144      0.0304
    175  N          7.0520   47.7290   -3.1800 N.am  145  ASP145     -0.1974
    176  CA         7.3810   46.3140   -3.2310 C.3   145  ASP145      0.1709
    177  C          8.3390   45.9880   -4.3850 C.2   145  ASP145      0.2293
    178  O          7.9390   45.5540   -5.4500 O.2   145  ASP145     -0.2864
    179  CB         6.0850   45.4860   -3.3090 C.3   145  ASP145      0.1436
    180  CG         6.2110   44.1330   -2.6200 C.2   145  ASP145      0.3671
    181  OD1        7.2380   43.4410   -2.8670 O.co2 145  ASP145     -0.2456
    182  OD2        5.3040   43.8030   -1.8120 O.co2 145  ASP145     -0.2456
@<TRIPOS>BOND
     1   161   159   am
     2   152   151    2
     3   158   159    1
     4   158   155    1
     5   157   156    2
     6   153   151   am
     7   151   150    1
     8   145   146    1
     9   159   160    2
    10   156   155    1
    11   178   177    2
    12   150   149    1
    13   173   172    2
    14   170   171    1
    15   154   155    1
    16   154   147   am
    17   177   176    1
    18   146   149    1
    19   146   147    1
    20   172   171    1
    21   172   175   am
    22   162   163    1
    23   147   148    2
    24   171   174    1
    25    63    64    1
    26   165   164    2
    27   179   176    1
    28   179   180    1
    29   176   175    1
    30   164   163    1
    31    54    55    1
    32   130   131    2
    33   130   129    1
    34   163   166    1
    35   181   180   ar
    36    55    56    1
    37    55    58    1
    38   136   137    1
    39   180   182   ar
    40   139   138    2
    41   138   137    1
    42    57    56    2
    43   134   133   ar
    44    64    67    1
    45    64    65    1
    46    68    67    1
    47    66    65    2
    48    58    59    1
    49    59    60    1
    50   166   167    1
    51   129   132    1
    52   129   128    1
    53   137   140    1
    54    32    30    1
    55    67    69    1
    56   132   133    1
    57   167   169    1
    58   167   168    1
    59    62    60   ar
    60   133   135   ar
    61    60    61   ar
    62   108   106    1
    63   128   121   am
    64   122   121    2
    65   140   141    1
    66    30    31    1
    67    30    27    1
    68    88    87   ar
    69   121   120    1
    70   127   125   am
    71   142   141    1
    72   142   143    1
    73    26    27    1
    74    26    24   am
    75    27    28    1
    76   106   107    1
    77   106   105    1
    78   125   126    2
    79   125   124    1
    80    87    89   ar
    81    87    86    1
    82   124   123    1
    83   123   120    1
    84    53    52    1
    85   105   102    1
    86   120   119    1
    87    79    77   ar
    88    79    80   ar
    89    24    23    1
    90    24    25    2
    91    23    22    1
    92   143   144    1
    93   119   111   am
    94    77    75   ar
    95    86    85    1
    96    28    29    2
    97    80    78   ar
    98    16    15    2
    99    52    51    1
   100   109   103   am
   101   109   110    1
   102   102   103    1
   103   102   101    1
   104   113   110    1
   105   113   114    1
   106    22    15   am
   107   111   110    1
   108   111   112    2
   109    75    74    1
   110    75    76   ar
   111   103   104    2
   112    85    82    1
   113    78    76   ar
   114    15    14    1
   115    84    83    2
   116    74    71    1
   117   101    92   am
   118    51    50    1
   119   114   115   ar
   120   114   116   ar
   121    81    82    1
   122    81    72   am
   123    93    92    2
   124   115   117   ar
   125    82    83    1
   126    83    90   am
   127    92    91    1
   128    71    72    1
   129    71    70    1
   130    14    13    1
   131    14    17    1
   132    13    11   am
   133   116   118   ar
   134    17    18    1
   135    72    73    2
   136    50    49    1
   137    39    37    1
   138   117   118   ar
   139    90    91    1
   140     4     3    2
   141    91    94    1
   142    10    11    1
   143    10     9    1
   144    11    12    2
   145    49    46    1
   146    44    41    1
   147    38    37    1
   148    37    34    1
   149    18    19    1
   150     3     9   am
   151     3     2    1
   152    96    98   ar
   153    96    95   ar
   154     6     8    1
   155     6     5    1
   156    94    95    1
   157    98   100   ar
   158    95    97   ar
   159    43    42    2
   160   100    99   ar
   161    19    21   ar
   162    19    20   ar
   163    46    45    1
   164    46    47    1
   165    97    99   ar
   166     5     2    1
   167     5     7    1
   168    41    42    1
   169    41    40    1
   170    34    33    1
   171    34    35    1
   172     2     1    1
   173    47    48    2
   174    35    36    2
