@<TRIPOS>MOLECULE
tmp/2c5wB00.pdb
 155 146 0 0 0
SMALL
GASTEIGER

@<TRIPOS>ATOM
      1  N         46.4750   22.0430   16.0930 N.3   102  ASP102     -0.1239
      2  CA        45.7420   21.1520   15.1950 C.3   102  ASP102      0.1674
      3  C         44.2240   21.3020   15.3540 C.2   102  ASP102      0.2266
      4  O         43.7240   21.2990   16.4780 O.2   102  ASP102     -0.2867
      5  CB        46.1160   19.7070   15.5110 C.3   102  ASP102      0.1410
      6  CG        46.1530   18.8240   14.2820 C.2   102  ASP102      0.3668
      7  OD1       45.1980   18.8690   13.4750 O.co2 102  ASP102     -0.2456
      8  OD2       47.1460   18.0740   14.1360 O.co2 102  ASP102     -0.2456
      9  N         42.1570   19.1590   13.8230 N.3   104  GLY104     -0.1210
     10  CA        41.6420   17.8350   13.5410 C.3   104  GLY104      0.1956
     11  C         40.5070   17.7110   12.5430 C.2   104  GLY104      0.2612
     12  O         40.5200   18.3130   11.4670 O.2   104  GLY104     -0.2717
     13  N         39.5130   16.9170   12.9130 N.am  105  SER105     -0.1952
     14  CA        38.3670   16.6670   12.0560 C.3   105  SER105      0.1924
     15  C         37.6050   17.8760   11.5310 C.2   105  SER105      0.2314
     16  O         36.8340   17.7350   10.5770 O.2   105  SER105     -0.2863
     17  CB        37.3880   15.7360   12.7660 C.3   105  SER105      0.2116
     18  OG        37.9930   14.4840   12.9980 O.3   105  SER105     -0.2180
     19  N         37.8360   17.8910    7.9680 N.3   108  LYS108     -0.1245
     20  CA        37.1790   16.9360    7.0780 C.3   108  LYS108      0.1561
     21  C         36.1360   17.5280    6.1360 C.2   108  LYS108      0.2260
     22  O         36.1230   17.2270    4.9420 O.2   108  LYS108     -0.2867
     23  CB        36.5440   15.7980    7.8920 C.3   108  LYS108      0.0271
     24  CG        37.5350   14.9540    8.7010 C.3   108  LYS108      0.0035
     25  CD        36.8400   13.7680    9.3850 C.3   108  LYS108      0.0206
     26  CE        37.7850   12.9940   10.3050 C.3   108  LYS108      0.1093
     27  NZ        37.0920   11.8720   11.0020 N.3   108  LYS108     -0.1314
     28  N         39.5630    6.4430   16.1440 N.3   146  TRP146     -0.1241
     29  CA        39.8480    6.5940   17.5680 C.3   146  TRP146      0.1605
     30  C         39.6730    5.2970   18.3620 C.2   146  TRP146      0.2264
     31  O         40.4450    5.0210   19.2740 O.2   146  TRP146     -0.2867
     32  CB        38.9570    7.6780   18.1850 C.3   146  TRP146      0.0550
     33  CG        37.5190    7.2580   18.3260 C.ar  146  TRP146      0.0003
     34  CD1       36.5580    7.2750   17.3550 C.ar  146  TRP146      0.0946
     35  CD2       36.9020    6.6870   19.4910 C.ar  146  TRP146      0.0152
     36  NE1       35.3810    6.7480   17.8400 N.ar  146  TRP146     -0.2442
     37  CE2       35.5640    6.3780   19.1470 C.ar  146  TRP146      0.0810
     38  CE3       37.3520    6.4010   20.7890 C.ar  146  TRP146      0.0012
     39  CZ2       34.6670    5.7970   20.0580 C.ar  146  TRP146      0.0191
     40  CZ3       36.4590    5.8210   21.6950 C.ar  146  TRP146      0.0001
     41  CH2       35.1320    5.5270   21.3220 C.ar  146  TRP146      0.0015
     42  N         29.8070   10.4460   12.8760 N.3   162  GLN162     -0.1231
     43  CA        30.6400    9.7760   13.8790 C.3   162  GLN162      0.1698
     44  C         32.1140   10.1220   13.7220 C.2   162  GLN162      0.2592
     45  O         32.9460    9.6710   14.4960 O.2   162  GLN162     -0.2718
     46  CB        30.4730    8.2600   13.7710 C.3   162  GLN162      0.0381
     47  CG        29.0530    7.7770   13.9740 C.3   162  GLN162      0.0905
     48  CD        28.5410    8.0670   15.3690 C.2   162  GLN162      0.2608
     49  OE1       29.2350    7.8250   16.3560 O.2   162  GLN162     -0.2717
     50  NE2       27.3160    8.5770   15.4620 N.am  162  GLN162     -0.0878
     51  N         32.4240   10.9140   12.7020 N.am  163  SER163     -0.1952
     52  CA        33.7880   11.3390   12.4160 C.3   163  SER163      0.1924
     53  C         34.7570   10.1660   12.3230 C.2   163  SER163      0.2314
     54  O         35.6980   10.0430   13.1050 O.2   163  SER163     -0.2863
     55  CB        34.2710   12.3340   13.4740 C.3   163  SER163      0.2116
     56  OG        35.4520   12.9890   13.0400 O.3   163  SER163     -0.2180
     57  N         37.7320    8.2970   10.6710 N.3   165  ASN165     -0.1240
     58  CA        38.9160    8.7060    9.9300 C.3   165  ASN165      0.1653
     59  C         39.1450    8.0380    8.5760 C.2   165  ASN165      0.2266
     60  O         39.4790    8.7180    7.5950 O.2   165  ASN165     -0.2867
     61  CB        40.1680    8.5100   10.7900 C.3   165  ASN165      0.1155
     62  CG        40.1340    9.3320   12.0530 C.2   165  ASN165      0.2627
     63  OD1       39.7150   10.4880   12.0340 O.2   165  ASN165     -0.2716
     64  ND2       40.5800    8.7480   13.1600 N.am  165  ASN165     -0.0877
     65  N         42.5970   14.8380    8.0390 N.3   200  ILE200     -0.1231
     66  CA        42.0320   14.8630    9.3820 C.3   200  ILE200      0.1692
     67  C         42.8780   15.6520   10.3630 C.2   200  ILE200      0.2592
     68  O         42.6780   15.5600   11.5650 O.2   200  ILE200     -0.2718
     69  CB        41.8680   13.4350    9.9320 C.3   200  ILE200      0.0266
     70  CG1       43.2280   12.7520   10.0120 C.3   200  ILE200      0.0019
     71  CG2       40.9690   12.6240    9.0160 C.3   200  ILE200      0.0020
     72  CD1       43.1870   11.4040   10.6750 C.3   200  ILE200      0.0001
     73  N         43.8180   16.4290    9.8400 N.am  201  SER201     -0.1952
     74  CA        44.7100   17.2270   10.6640 C.3   201  SER201      0.1924
     75  C         45.0730   18.4920    9.9100 C.2   201  SER201      0.2314
     76  O         45.2260   18.4660    8.6950 O.2   201  SER201     -0.2863
     77  CB        45.9770   16.4250   10.9830 C.3   201  SER201      0.2116
     78  OG        46.9390   17.1960   11.6810 O.3   201  SER201     -0.2180
     79  N         28.8800   13.5410   17.2200 N.3   278  THR278     -0.1218
     80  CA        29.8900   14.0120   18.1590 C.3   278  THR278      0.1862
     81  C         29.6400   15.4170   18.7070 C.2   278  THR278      0.2287
     82  O         30.1390   15.7670   19.7760 O.2   278  THR278     -0.2866
     83  CB        31.3000   13.9720   17.5070 C.3   278  THR278      0.1770
     84  OG1       31.2660   14.6100   16.2220 O.3   278  THR278     -0.2211
     85  CG2       31.7610   12.5420   17.3330 C.3   278  THR278      0.0375
     86  N         32.8810   18.6710   15.0110 N.3   293  THR293     -0.1203
     87  CA        33.7980   18.6020   16.1450 C.3   293  THR293      0.1994
     88  C         35.1750   18.1140   15.7050 C.2   293  THR293      0.2618
     89  O         35.3500   17.6350   14.5910 O.2   293  THR293     -0.2717
     90  CB        33.2920   17.6250   17.2240 C.3   293  THR293      0.1784
     91  OG1       33.0790   16.3340   16.6370 O.3   293  THR293     -0.2211
     92  CG2       31.9960   18.1190   17.8300 C.3   293  THR293      0.0376
     93  N         36.1470   18.2250   16.6000 N.am  294  GLY294     -0.1942
     94  CA        37.4910   17.7770   16.2930 C.3   294  GLY294      0.2014
     95  C         38.2590   17.4820   17.5660 C.2   294  GLY294      0.2640
     96  O         38.0450   18.1380   18.5870 O.2   294  GLY294     -0.2714
     97  N         39.1390   16.4860   17.5110 N.am  295  THR295     -0.1936
     98  CA        39.9680   16.0950   18.6510 C.3   295  THR295      0.2028
     99  C         41.3370   15.6840   18.1240 C.2   295  THR295      0.2643
    100  O         41.4310   14.7930   17.2720 O.2   295  THR295     -0.2714
    101  CB        39.3660   14.8990   19.4000 C.3   295  THR295      0.1808
    102  OG1       38.0860   15.2670   19.9350 O.3   295  THR295     -0.2208
    103  CG2       40.2880   14.4560   20.5380 C.3   295  THR295      0.0379
    104  N         42.3930   16.3430   18.6060 N.am  296  SER296     -0.1935
    105  CA        43.7490   16.0190   18.1710 C.3   296  SER296      0.2055
    106  C         44.2790   14.9290   19.0910 C.2   296  SER296      0.2643
    107  O         43.6000   14.5360   20.0370 O.2   296  SER296     -0.2714
    108  CB        44.6520   17.2570   18.2310 C.3   296  SER296      0.2130
    109  OG        44.8540   17.6990   19.5600 O.3   296  SER296     -0.2179
    110  N         45.4810   14.4300   18.8250 N.am  297  ASN297     -0.1971
    111  CA        46.0180   13.3700   19.6640 C.3   297  ASN297      0.1688
    112  C         47.4390   13.6050   20.1090 C.2   297  ASN297      0.2292
    113  O         48.0860   14.5660   19.7020 O.2   297  ASN297     -0.2864
    114  CB        45.9420   12.0140   18.9410 C.3   297  ASN297      0.1181
    115  CG        46.9280   11.9000   17.7730 C.2   297  ASN297      0.2629
    116  OD1       47.7980   12.7530   17.5760 O.2   297  ASN297     -0.2716
    117  ND2       46.7920   10.8280   16.9990 N.am  297  ASN297     -0.0877
    118  N         40.4570    9.0370   28.4740 N.3   312  PHE312     -0.1227
    119  CA        40.5480    9.5280   27.0960 C.3   312  PHE312      0.1736
    120  C         41.0360   10.9650   27.1760 C.2   312  PHE312      0.2595
    121  O         40.4030   11.8020   27.8230 O.2   312  PHE312     -0.2718
    122  CB        39.1800    9.5120   26.4160 C.3   312  PHE312      0.0547
    123  CG        39.1970   10.0440   25.0080 C.ar  312  PHE312     -0.0202
    124  CD1       39.6370    9.2490   23.9520 C.ar  312  PHE312     -0.0042
    125  CD2       38.7720   11.3430   24.7350 C.ar  312  PHE312     -0.0042
    126  CE1       39.6520    9.7410   22.6400 C.ar  312  PHE312     -0.0003
    127  CE2       38.7830   11.8460   23.4260 C.ar  312  PHE312     -0.0003
    128  CZ        39.2230   11.0410   22.3780 C.ar  312  PHE312     -0.0000
    129  N         42.1480   11.2560   26.5130 N.am  313  VAL313     -0.1980
    130  CA        42.7180   12.5940   26.5640 C.3   313  VAL313      0.1595
    131  C         43.0580   13.1810   25.2100 C.2   313  VAL313      0.2287
    132  O         43.0430   12.4850   24.1950 O.2   313  VAL313     -0.2864
    133  CB        43.9830   12.6060   27.4340 C.3   313  VAL313      0.0276
    134  CG1       43.6020   12.4070   28.8890 C.3   313  VAL313      0.0022
    135  CG2       44.9310   11.5020   26.9850 C.3   313  VAL313      0.0022
    136  N         40.5690   20.2740   21.5590 N.3   317  GLU317     -0.1245
    137  CA        39.1610   19.9370   21.3460 C.3   317  GLU317      0.1567
    138  C         38.6490   21.1510   20.5750 C.2   317  GLU317      0.2260
    139  O         38.9380   22.3000   20.9320 O.2   317  GLU317     -0.2867
    140  CB        38.4060   19.7760   22.6700 C.3   317  GLU317      0.0388
    141  CG        36.9820   19.2510   22.5160 C.3   317  GLU317      0.1160
    142  CD        36.9060   17.9540   21.6960 C.2   317  GLU317      0.3649
    143  OE1       37.9060   17.1930   21.6680 O.co2 317  GLU317     -0.2457
    144  OE2       35.8400   17.6890   21.0880 O.co2 317  GLU317     -0.2457
    145  N         50.6580   21.9320   25.4880 N.3   337  ARG337     -0.1245
    146  CA        49.9690   20.7970   24.9070 C.3   337  ARG337      0.1563
    147  C         50.0670   19.5560   25.7810 C.2   337  ARG337      0.2260
    148  O         49.1750   18.6990   25.7540 O.2   337  ARG337     -0.2867
    149  CB        50.5150   20.5020   23.5100 C.3   337  ARG337      0.0307
    150  CG        51.9920   20.1330   23.4250 C.3   337  ARG337      0.0489
    151  CD        52.1450   19.0170   22.4070 C.3   337  ARG337      0.2205
    152  NE        51.0980   19.1260   21.3970 N.pl3 337  ARG337     -0.0865
    153  CZ        50.5730   18.1080   20.7190 C.cat 337  ARG337      0.5346
    154  NH1       50.9850   16.8630   20.9200 N.pl3 337  ARG337      0.1354
    155  NH2       49.6090   18.3470   19.8380 N.pl3 337  ARG337      0.1354
@<TRIPOS>BOND
     1    22    21    2
     2    21    20    1
     3    20    23    1
     4    20    19    1
     5    60    59    2
     6    23    24    1
     7    65    66    1
     8    59    58    1
     9    76    75    2
    10    24    25    1
    11    71    69    1
    12    66    69    1
    13    66    67    1
    14    25    26    1
    15    73    67   am
    16    73    74    1
    17    75    74    1
    18    58    57    1
    19    58    61    1
    20    69    70    1
    21    70    72    1
    22    26    27    1
    23    67    68    2
    24    16    15    2
    25    74    77    1
    26    61    62    1
    27    77    78    1
    28    12    11    2
    29    15    14    1
    30    63    62    2
    31    62    64   am
    32    14    17    1
    33    14    13    1
    34    53    52    1
    35    53    54    2
    36    52    51    1
    37    52    55    1
    38    11    13   am
    39    11    10    1
    40    51    44   am
    41    17    18    1
    42    42    43    1
    43    56    55    1
    44     7     6   ar
    45    10     9    1
    46    44    43    1
    47    44    45    2
    48    46    43    1
    49    46    47    1
    50    47    48    1
    51     8     6   ar
    52     6     5    1
    53    89    88    2
    54    86    87    1
    55     2     3    1
    56     2     5    1
    57     2     1    1
    58     3     4    2
    59    48    50   am
    60    48    49    2
    61    88    87    1
    62    88    93   am
    63    28    29    1
    64    87    90    1
    65    84    83    1
    66    94    93    1
    67    94    95    1
    68    91    90    1
    69   117   115   am
    70    79    80    1
    71    90    92    1
    72   100    99    2
    73    85    83    1
    74    34    36   ar
    75    34    33   ar
    76    83    80    1
    77    97    95   am
    78    97    98    1
    79    95    96    2
    80    29    32    1
    81    29    30    1
    82   116   115    2
    83   115   114    1
    84    36    37   ar
    85    99   104   am
    86    99    98    1
    87    80    81    1
    88   105   108    1
    89   105   104    1
    90   105   106    1
    91    32    33    1
    92   108   109    1
    93    33    35   ar
    94    30    31    2
    95    98   101    1
    96    81    82    2
    97   110   106   am
    98   110   111    1
    99   114   111    1
   100   106   107    2
   101    37    35   ar
   102    37    39   ar
   103   101   102    1
   104   101   103    1
   105    35    38   ar
   106   111   112    1
   107   113   112    2
   108   155   153    1
   109    39    41   ar
   110   138   139    2
   111   138   137    1
   112   153   154    1
   113   153   152    2
   114    38    40   ar
   115   144   142   ar
   116    41    40   ar
   117   137   136    1
   118   137   140    1
   119   152   151    1
   120   143   142   ar
   121   142   141    1
   122   128   126   ar
   123   128   127   ar
   124   151   150    1
   125   141   140    1
   126   126   124   ar
   127   150   149    1
   128   127   125   ar
   129   149   146    1
   130   124   123   ar
   131   132   131    2
   132   125   123   ar
   133   146   145    1
   134   146   147    1
   135   123   122    1
   136   131   130    1
   137   148   147    2
   138   122   119    1
   139   129   130    1
   140   129   120   am
   141   130   133    1
   142   135   133    1
   143   119   120    1
   144   119   118    1
   145   120   121    2
   146   133   134    1
