@<TRIPOS>MOLECULE
tmp/2c5xC00.pdb
 175 167 0 0 0
SMALL
GASTEIGER

@<TRIPOS>ATOM
      1  N         43.0270   42.5160   28.7600 N.3    10  ILE10      -0.1231
      2  CA        44.3670   43.0920   28.6930 C.3    10  ILE10       0.1692
      3  C         44.4790   44.4840   29.3010 C.2    10  ILE10       0.2593
      4  O         45.5790   45.0170   29.4710 O.2    10  ILE10      -0.2718
      5  CB        44.9200   43.1950   27.2590 C.3    10  ILE10       0.0266
      6  CG1       43.8780   43.7660   26.2730 C.3    10  ILE10       0.0019
      7  CG2       45.7190   41.9310   26.9410 C.3    10  ILE10       0.0020
      8  CD1       44.1280   43.3450   24.8240 C.3    10  ILE10       0.0001
      9  N         43.3470   45.1280   29.5500 N.am   11  GLY11      -0.1942
     10  CA        43.4250   46.4490   30.1810 C.3    11  GLY11       0.2014
     11  C         42.1760   46.8490   30.9600 C.2    11  GLY11       0.2639
     12  O         41.0660   46.3440   30.7110 O.2    11  GLY11      -0.2714
     13  N         42.3760   47.7010   31.9630 N.am   12  GLU12      -0.1963
     14  CA        41.3490   48.6800   32.3290 C.3    12  GLU12       0.1733
     15  C         41.9680   50.0460   32.0690 C.2    12  GLU12       0.2616
     16  O         43.0530   50.1480   31.4500 O.2    12  GLU12      -0.2715
     17  CB        40.8330   48.5330   33.7930 C.3    12  GLU12       0.0429
     18  CG        41.5940   47.5000   34.6510 C.3    12  GLU12       0.1163
     19  CD        43.1030   47.8480   34.7290 C.2    12  GLU12       0.3649
     20  OE1       43.6490   47.8930   35.8580 O.co2  12  GLU12      -0.2457
     21  OE2       43.7570   48.1490   33.6740 O.co2  12  GLU12      -0.2457
     22  N         41.2410   51.0740   32.5390 N.am   13  GLY13      -0.1955
     23  CA        41.7170   52.4570   32.5150 C.3    13  GLY13       0.1869
     24  C         40.5100   53.3190   32.1970 C.2    13  GLY13       0.2309
     25  O         39.8460   53.0560   31.1950 O.2    13  GLY13      -0.2863
     26  N         39.8570   46.9470   28.2010 N.3    18  VAL18      -0.1245
     27  CA        39.9090   46.2840   26.9220 C.3    18  VAL18       0.1561
     28  C         40.0480   44.7950   27.1320 C.2    18  VAL18       0.2260
     29  O         40.7250   44.3890   28.0950 O.2    18  VAL18      -0.2867
     30  CB        41.2800   46.5670   26.3320 C.3    18  VAL18       0.0252
     31  CG1       41.3110   46.2870   24.8110 C.3    18  VAL18       0.0019
     32  CG2       41.7130   47.9660   26.7380 C.3    18  VAL18       0.0019
     33  N         40.6760   43.6940   19.6160 N.3    31  ALA31      -0.1245
     34  CA        40.9300   44.5470   20.7780 C.3    31  ALA31       0.1562
     35  C         39.5920   45.1360   21.3240 C.2    31  ALA31       0.2260
     36  O         39.2170   46.2650   21.0000 O.2    31  ALA31      -0.2867
     37  CB        41.8520   45.6810   20.2940 C.3    31  ALA31       0.0290
     38  N         37.0570   47.1790   23.3210 N.3    33  LYS33      -0.1245
     39  CA        36.8950   48.0570   24.4790 C.3    33  LYS33       0.1561
     40  C         35.4130   48.2170   24.6860 C.2    33  LYS33       0.2260
     41  O         34.6850   48.7230   23.8140 O.2    33  LYS33      -0.2867
     42  CB        37.5370   49.4470   24.3010 C.3    33  LYS33       0.0271
     43  CG        37.9820   50.1720   25.6070 C.3    33  LYS33       0.0035
     44  CD        38.1410   51.6780   25.4870 C.3    33  LYS33       0.0206
     45  CE        39.5540   52.1360   25.8240 C.3    33  LYS33       0.1093
     46  NZ        40.1520   53.0040   24.7300 N.3    33  LYS33      -0.1314
     47  N         37.0590   59.6880   20.7170 N.3    51  GLU51      -0.1245
     48  CA        38.1080   58.8130   20.1940 C.3    51  GLU51       0.1567
     49  C         37.4840   58.2420   18.9170 C.2    51  GLU51       0.2260
     50  O         38.0440   58.2940   17.8270 O.2    51  GLU51      -0.2867
     51  CB        38.4250   57.7180   21.2160 C.3    51  GLU51       0.0388
     52  CG        39.1600   56.5560   20.6430 C.3    51  GLU51       0.1160
     53  CD        39.6830   55.5620   21.6840 C.2    51  GLU51       0.3649
     54  OE1       38.8650   54.7820   22.2320 O.co2  51  GLU51      -0.2457
     55  OE2       40.9240   55.3880   21.8290 O.co2  51  GLU51      -0.2457
     56  N         46.5930   53.4360   15.5850 N.3    64  VAL64      -0.1245
     57  CA        45.7890   52.2270   15.7160 C.3    64  VAL64       0.1561
     58  C         44.5660   52.3770   14.8420 C.2    64  VAL64       0.2260
     59  O         43.8720   53.3710   14.9820 O.2    64  VAL64      -0.2867
     60  CB        45.0540   52.1100   17.0850 C.3    64  VAL64       0.0252
     61  CG1       45.2330   50.7320   17.6930 C.3    64  VAL64       0.0019
     62  CG2       45.2740   53.3090   17.9990 C.3    64  VAL64       0.0019
     63  N         39.1710   47.3000   17.9660 N.3    80  PHE80      -0.1227
     64  CA        40.3780   47.8800   17.4010 C.3    80  PHE80       0.1736
     65  C         41.1720   46.7440   16.8280 C.2    80  PHE80       0.2595
     66  O         41.0790   45.6160   17.3150 O.2    80  PHE80      -0.2718
     67  CB        41.2520   48.4920   18.4840 C.3    80  PHE80       0.0547
     68  CG        40.6470   49.7280   19.1280 C.ar   80  PHE80      -0.0202
     69  CD1       39.7980   49.6170   20.2160 C.ar   80  PHE80      -0.0042
     70  CD2       40.9190   50.9930   18.6460 C.ar   80  PHE80      -0.0042
     71  CE1       39.3000   50.7120   20.8360 C.ar   80  PHE80      -0.0003
     72  CE2       40.3880   52.0860   19.2580 C.ar   80  PHE80      -0.0003
     73  CZ        39.6130   51.9450   20.3650 C.ar   80  PHE80      -0.0000
     74  N         42.0410   47.0780   15.8850 N.am   81  GLU81      -0.1965
     75  CA        43.1340   46.1750   15.5840 C.3    81  GLU81       0.1733
     76  C         43.9810   45.8240   16.8070 C.2    81  GLU81       0.2616
     77  O         44.0510   46.5210   17.8260 O.2    81  GLU81      -0.2715
     78  CB        44.0200   46.7570   14.4930 C.3    81  GLU81       0.0429
     79  CG        45.1110   47.6560   15.0630 C.3    81  GLU81       0.1163
     80  CD        45.9760   48.3200   13.9950 C.2    81  GLU81       0.3649
     81  OE1       46.2290   49.5440   14.0400 O.co2  81  GLU81      -0.2457
     82  OE2       46.4290   47.6060   13.0840 O.co2  81  GLU81      -0.2457
     83  N         44.5530   44.6340   16.7690 N.am   82  PHE82      -0.1960
     84  CA        45.1760   44.2050   18.0040 C.3    82  PHE82       0.1771
     85  C         46.6720   44.4160   17.9090 C.2    82  PHE82       0.2619
     86  O         47.2350   44.4410   16.8280 O.2    82  PHE82      -0.2715
     87  CB        44.8070   42.7600   18.3840 C.3    82  PHE82       0.0574
     88  CG        45.6160   42.1910   19.5590 C.ar   82  PHE82      -0.0200
     89  CD1       46.8060   41.5300   19.3550 C.ar   82  PHE82      -0.0042
     90  CD2       45.1580   42.3060   20.8570 C.ar   82  PHE82      -0.0042
     91  CE1       47.4480   40.9050   20.3770 C.ar   82  PHE82      -0.0003
     92  CE2       45.8700   41.8430   21.9230 C.ar   82  PHE82      -0.0003
     93  CZ        47.0070   41.0970   21.6750 C.ar   82  PHE82      -0.0000
     94  N         47.3160   44.6620   19.0310 N.am   83  LEU83      -0.1963
     95  CA        48.6990   44.9720   18.8970 C.3    83  LEU83       0.1728
     96  C         49.2790   44.3960   20.1430 C.2    83  LEU83       0.2616
     97  O         48.6370   44.4360   21.1720 O.2    83  LEU83      -0.2715
     98  CB        48.8640   46.4770   18.8300 C.3    83  LEU83       0.0311
     99  CG        49.2010   47.0700   17.4560 C.3    83  LEU83       0.0022
    100  CD1       47.9370   47.4390   16.7090 C.3    83  LEU83       0.0001
    101  CD2       50.1300   48.2830   17.6220 C.3    83  LEU83       0.0001
    102  N         50.4100   43.7240   20.0110 N.am   84  HIS84      -0.1959
    103  CA        50.7900   42.7300   20.9940 C.3    84  HIS84       0.1787
    104  C         50.8700   43.3890   22.3450 C.2    84  HIS84       0.2620
    105  O         50.5460   42.7270   23.3000 O.2    84  HIS84      -0.2715
    106  CB        52.1380   42.0820   20.6470 C.3    84  HIS84       0.0785
    107  CG        52.5910   40.9990   21.5870 C.ar   84  HIS84       0.0821
    108  ND1       51.8210   39.8890   21.8930 N.ar   84  HIS84      -0.2267
    109  CD2       53.7870   40.8000   22.2050 C.ar   84  HIS84       0.1154
    110  CE1       52.4820   39.1020   22.7290 C.ar   84  HIS84       0.1986
    111  NE2       53.6920   39.6170   22.9090 N.ar   84  HIS84      -0.2212
    112  N         51.2130   44.6690   22.4420 N.am   85  GLN85      -0.1963
    113  CA        51.7200   45.2010   23.6910 C.3    85  GLN85       0.1733
    114  C         52.1280   46.6630   23.7050 C.2    85  GLN85       0.2616
    115  O         52.4350   47.2700   22.7030 O.2    85  GLN85      -0.2715
    116  CB        52.9600   44.3970   24.0070 C.3    85  GLN85       0.0408
    117  CG        54.1250   45.2960   24.3800 C.3    85  GLN85       0.0908
    118  CD        54.7060   44.8370   25.7080 C.2    85  GLN85       0.2608
    119  OE1       55.8920   44.4760   25.7970 O.2    85  GLN85      -0.2717
    120  NE2       53.8210   44.7240   26.7130 N.am   85  GLN85      -0.0878
    121  N         52.3010   47.2260   24.8800 N.am   86  ASP86      -0.1971
    122  CA        52.4080   48.6600   24.9120 C.3    86  ASP86       0.1709
    123  C         53.8650   49.0300   25.1780 C.2    86  ASP86       0.2293
    124  O         54.6550   48.1640   25.5300 O.2    86  ASP86      -0.2864
    125  CB        51.4790   49.1500   26.0120 C.3    86  ASP86       0.1436
    126  CG        52.1340   49.0850   27.3460 C.2    86  ASP86       0.3671
    127  OD1       53.3620   49.3330   27.3500 O.co2  86  ASP86      -0.2456
    128  OD2       51.4590   48.7730   28.3510 O.co2  86  ASP86      -0.2456
    129  N         55.4800   48.6590   28.6930 N.3    89  LYS89      -0.1245
    130  CA        55.6840   47.3150   29.2270 C.3    89  LYS89       0.1561
    131  C         56.8250   46.7150   28.4240 C.2    89  LYS89       0.2260
    132  O         57.5550   45.8500   28.8940 O.2    89  LYS89      -0.2867
    133  CB        54.4250   46.4510   29.0350 C.3    89  LYS89       0.0271
    134  CG        53.8650   45.6670   30.2550 C.3    89  LYS89       0.0035
    135  CD        52.3360   45.3880   30.1690 C.3    89  LYS89       0.0206
    136  CE        51.4990   46.2880   31.1060 C.3    89  LYS89       0.1093
    137  NZ        51.9610   47.7330   31.1390 N.3    89  LYS89      -0.1314
    138  N         52.0470   54.4010   27.6530 N.3   131  GLN131     -0.1231
    139  CA        51.0530   53.3520   27.8310 C.3   131  GLN131      0.1698
    140  C         50.2060   53.5290   26.6030 C.2   131  GLN131      0.2592
    141  O         49.4860   52.6330   26.1770 O.2   131  GLN131     -0.2718
    142  CB        50.1470   53.5290   29.0620 C.3   131  GLN131      0.0381
    143  CG        50.9270   53.3990   30.3110 C.3   131  GLN131      0.0905
    144  CD        51.8350   54.5970   30.5170 C.2   131  GLN131      0.2608
    145  OE1       51.4680   55.5180   31.2540 O.2   131  GLN131     -0.2717
    146  NE2       53.0120   54.5950   29.8870 N.am  131  GLN131     -0.0878
    147  N         50.1740   54.7290   26.0740 N.am  132  ASN132     -0.1974
    148  CA        49.1920   54.9230   25.0220 C.3   132  ASN132      0.1688
    149  C         49.7630   54.6160   23.6400 C.2   132  ASN132      0.2292
    150  O         49.1180   54.8810   22.6220 O.2   132  ASN132     -0.2864
    151  CB        48.6900   56.3660   25.0610 C.3   132  ASN132      0.1181
    152  CG        47.5020   56.5290   25.9580 C.2   132  ASN132      0.2629
    153  OD1       47.0210   55.5330   26.4670 O.2   132  ASN132     -0.2716
    154  ND2       46.9750   57.7440   26.0910 N.am  132  ASN132     -0.0877
    155  N         51.2540   51.7860   21.3120 N.3   134  LEU134     -0.1245
    156  CA        51.3900   50.3470   21.1100 C.3   134  LEU134      0.1561
    157  C         52.2940   49.9070   19.9810 C.2   134  LEU134      0.2260
    158  O         52.3530   50.5570   18.9450 O.2   134  LEU134     -0.2867
    159  CB        50.0200   49.7200   20.8650 C.3   134  LEU134      0.0270
    160  CG        48.9580   50.4880   21.6540 C.3   134  LEU134      0.0019
    161  CD1       47.5490   50.0650   21.2920 C.3   134  LEU134      0.0001
    162  CD2       49.2050   50.4600   23.1630 C.3   134  LEU134      0.0001
    163  N         47.9300   55.1770   20.1320 N.3   144  ALA144     -0.1231
    164  CA        46.5930   54.7840   20.4420 C.3   144  ALA144      0.1694
    165  C         45.9890   55.5420   21.5990 C.2   144  ALA144      0.2592
    166  O         46.6240   56.2930   22.3640 O.2   144  ALA144     -0.2718
    167  CB        46.5540   53.3280   20.7050 C.3   144  ALA144      0.0304
    168  N         44.6970   55.2580   21.7090 N.am  145  ASP145     -0.1974
    169  CA        43.9070   55.7490   22.8100 C.3   145  ASP145      0.1709
    170  C         43.5700   57.2260   22.7090 C.2   145  ASP145      0.2293
    171  O         44.2480   58.0430   23.3010 O.2   145  ASP145     -0.2864
    172  CB        44.6790   55.5970   24.0930 C.3   145  ASP145      0.1436
    173  CG        43.8400   56.0840   25.2080 C.2   145  ASP145      0.3671
    174  OD1       44.1870   55.8610   26.3840 O.co2 145  ASP145     -0.2456
    175  OD2       42.7630   56.6060   24.8360 O.co2 145  ASP145     -0.2456
@<TRIPOS>BOND
     1    82    80   ar
     2    80    81   ar
     3    80    79    1
     4    78    79    1
     5    78    75    1
     6    58    59    2
     7    58    57    1
     8    75    74    1
     9    75    76    1
    10    56    57    1
    11    57    60    1
    12    74    65   am
    13   100    99    1
    14    83    76   am
    15    83    84    1
    16    76    77    2
    17    65    66    2
    18    65    64    1
    19    86    85    2
    20    60    61    1
    21    60    62    1
    22    64    63    1
    23    64    67    1
    24    99   101    1
    25    99    98    1
    26    50    49    2
    27    85    84    1
    28    85    94   am
    29    84    87    1
    30    87    88    1
    31    67    68    1
    32    70    68   ar
    33    70    72   ar
    34    98    95    1
    35    95    94    1
    36    95    96    1
    37    49    48    1
    38   158   157    2
    39    68    69   ar
    40    72    73   ar
    41    89    88   ar
    42    89    91   ar
    43    88    90   ar
    44    33    34    1
    45   157   156    1
    46   102    96   am
    47   102   103    1
    48   163   164    1
    49    96    97    2
    50    48    47    1
    51    48    51    1
    52    69    71   ar
    53    37    34    1
    54    73    71   ar
    55    91    93   ar
    56   164   167    1
    57   164   165    1
    58    52    51    1
    59    52    53    1
    60   106   103    1
    61   106   107    1
    62    34    35    1
    63    90    92   ar
    64   159   156    1
    65   159   160    1
    66   103   104    1
    67    36    35    2
    68   156   155    1
    69   161   160    1
    70   107   108   ar
    71   107   109   ar
    72   165   168   am
    73   165   166    2
    74   160   162    1
    75    93    92   ar
    76    53    55   ar
    77    53    54   ar
    78   168   169    1
    79   108   110   ar
    80   109   111   ar
    81   104   112   am
    82   104   105    2
    83   112   113    1
    84   150   149    2
    85   115   114    2
    86   170   169    1
    87   170   171    2
    88   110   111   ar
    89   169   172    1
    90    38    39    1
    91   149   148    1
    92   113   114    1
    93   113   116    1
    94   114   121   am
    95    41    40    2
    96   116   117    1
    97   172   173    1
    98    42    39    1
    99    42    43    1
   100   117   118    1
   101    39    40    1
   102    46    45    1
   103    31    30    1
   104     8     6    1
   105   175   173   ar
   106   121   122    1
   107   122   123    1
   108   122   125    1
   109   148   151    1
   110   148   147    1
   111   151   152    1
   112   123   124    2
   113   173   174   ar
   114    44    43    1
   115    44    45    1
   116   118   119    2
   117   118   120   am
   118   152   154   am
   119   152   153    2
   120   125   126    1
   121   147   140   am
   122   141   140    2
   123     6     5    1
   124    30    32    1
   125    30    27    1
   126   140   139    1
   127    27    28    1
   128    27    26    1
   129     7     5    1
   130    28    29    2
   131     5     2    1
   132   126   127   ar
   133   126   128   ar
   134   138   139    1
   135   139   142    1
   136   131   132    2
   137   131   130    1
   138     2     1    1
   139     2     3    1
   140   129   130    1
   141   133   130    1
   142   133   134    1
   143   142   143    1
   144     3     4    2
   145     3     9   am
   146     9    10    1
   147   146   144   am
   148   135   134    1
   149   135   136    1
   150    10    11    1
   151   143   144    1
   152   144   145    2
   153    12    11    2
   154    11    13   am
   155   136   137    1
   156    25    24    2
   157    16    15    2
   158    13    14    1
   159    15    14    1
   160    15    22   am
   161    24    23    1
   162    14    17    1
   163    23    22    1
   164    21    19   ar
   165    17    18    1
   166    18    19    1
   167    19    20   ar
