@<TRIPOS>MOLECULE
tmp/2c64B01.pdb
 140 135 0 0 0
SMALL
GASTEIGER

@<TRIPOS>ATOM
      1  N         24.8060  117.2450   16.1140 N.3    55  GLY55      -0.1210
      2  CA        25.0260  118.6830   15.8970 C.3    55  GLY55       0.1956
      3  C         23.6940  119.3870   15.7110 C.2    55  GLY55       0.2612
      4  O         22.7130  119.0350   16.3530 O.2    55  GLY55      -0.2717
      5  N         23.6400  120.3620   14.8130 N.am   56  GLY56      -0.1942
      6  CA        22.3790  121.0470   14.5180 C.3    56  GLY56       0.2014
      7  C         21.2870  120.0610   14.1440 C.2    56  GLY56       0.2640
      8  O         21.5750  119.0600   13.4820 O.2    56  GLY56      -0.2714
      9  N         20.0500  120.3670   14.5530 N.am   57  SER57      -0.1935
     10  CA        18.9380  119.4390   14.5570 C.3    57  SER57       0.2055
     11  C         17.5750  120.0790   14.3740 C.2    57  SER57       0.2643
     12  O         16.8040  119.5950   13.5460 O.2    57  SER57      -0.2714
     13  CB        18.9330  118.6230   15.8760 C.3    57  SER57       0.2130
     14  OG        18.1150  117.4650   15.7860 O.3    57  SER57      -0.2179
     15  N         17.2550  121.1250   15.1450 N.am   58  TYR58      -0.1973
     16  CA        15.8670  121.6470   15.2150 C.3    58  TYR58       0.1639
     17  C         15.5470  122.6180   14.1000 C.2    58  TYR58       0.2290
     18  O         16.4200  123.3910   13.7230 O.2    58  TYR58      -0.2864
     19  CB        15.5870  122.3400   16.5760 C.3    58  TYR58       0.0560
     20  CG        15.7380  121.3570   17.6890 C.ar   58  TYR58      -0.0198
     21  CD1       16.8970  121.3280   18.4510 C.ar   58  TYR58      -0.0009
     22  CD2       14.7300  120.3940   17.9270 C.ar   58  TYR58      -0.0009
     23  CE1       17.0860  120.3520   19.4110 C.ar   58  TYR58       0.0417
     24  CE2       14.9090  119.4240   18.8850 C.ar   58  TYR58       0.0417
     25  CZ        16.1000  119.3990   19.6090 C.ar   58  TYR58       0.1957
     26  OH        16.2730  118.4260   20.5480 O.3    58  TYR58      -0.2866
     27  N         18.9370  131.5430   29.8520 N.3   166  PHE166     -0.1241
     28  CA        18.5300  131.9260   28.5150 C.3   166  PHE166      0.1605
     29  C         19.7410  132.2450   27.6300 C.2   166  PHE166      0.2264
     30  O         19.9300  131.6070   26.6070 O.2   166  PHE166     -0.2867
     31  CB        17.5300  133.0730   28.5860 C.3   166  PHE166      0.0534
     32  CG        17.1920  133.6780   27.2510 C.ar  166  PHE166     -0.0203
     33  CD1       16.7090  132.9010   26.2180 C.ar  166  PHE166     -0.0042
     34  CD2       17.3660  135.0190   27.0290 C.ar  166  PHE166     -0.0042
     35  CE1       16.3820  133.4670   24.9710 C.ar  166  PHE166     -0.0003
     36  CE2       17.0270  135.5860   25.7890 C.ar  166  PHE166     -0.0003
     37  CZ        16.5590  134.8070   24.7540 C.ar  166  PHE166     -0.0000
     38  N         22.0160  129.2380   26.9920 N.3   169  LEU169     -0.1231
     39  CA        21.3780  128.2640   26.1390 C.3   169  LEU169      0.1693
     40  C         21.3380  128.7310   24.6990 C.2   169  LEU169      0.2592
     41  O         21.5970  127.9370   23.8110 O.2   169  LEU169     -0.2718
     42  CB        19.9460  128.0010   26.5880 C.3   169  LEU169      0.0284
     43  CG        19.1330  126.9250   25.8550 C.3   169  LEU169      0.0019
     44  CD1       19.8300  125.5040   25.8270 C.3   169  LEU169      0.0001
     45  CD2       17.7160  126.8250   26.4380 C.3   169  LEU169      0.0001
     46  N         21.0340  130.0210   24.4950 N.am  170  CYS170     -0.1970
     47  CA        20.9580  130.6240   23.1730 C.3   170  CYS170      0.1712
     48  C         22.2840  130.6140   22.5030 C.2   170  CYS170      0.2296
     49  O         22.3550  130.3490   21.3110 O.2   170  CYS170     -0.2864
     50  CB        20.4750  132.0750   23.2350 C.3   170  CYS170      0.0983
     51  SG        18.7080  132.2200   23.4060 S.3   170  CYS170     -0.0798
     52  N         12.2250  132.4440   19.4140 N.3   196  ILE196     -0.1231
     53  CA        13.4830  131.7340   19.5920 C.3   196  ILE196      0.1692
     54  C         13.4410  130.6340   20.6820 C.2   196  ILE196      0.2591
     55  O         14.1670  129.6450   20.5990 O.2   196  ILE196     -0.2718
     56  CB        14.7190  132.7360   19.7690 C.3   196  ILE196      0.0266
     57  CG1       15.9950  132.0880   19.2620 C.3   196  ILE196      0.0019
     58  CG2       14.8790  133.1890   21.2080 C.3   196  ILE196      0.0020
     59  CD1       17.2130  132.9700   19.3560 C.3   196  ILE196      0.0001
     60  N         12.6050  130.8020   21.6840 N.am  197  ILE197     -0.1980
     61  CA        12.5580  129.8520   22.8130 C.3   197  ILE197      0.1595
     62  C         11.4580  128.7600   22.6490 C.2   197  ILE197      0.2287
     63  O         11.4730  127.7200   23.3230 O.2   197  ILE197     -0.2864
     64  CB        12.3730  130.5940   24.1990 C.3   197  ILE197      0.0276
     65  CG1       11.0250  131.2930   24.2630 C.3   197  ILE197      0.0022
     66  CG2       13.3520  131.7110   24.3810 C.3   197  ILE197      0.0022
     67  CD1       10.0840  130.6620   25.1340 C.3   197  ILE197      0.0001
     68  N         12.2070  125.3290   17.7760 N.3   204  GLN204     -0.1245
     69  CA        12.4560  123.9410   18.1900 C.3   204  GLN204      0.1566
     70  C         11.2980  123.0290   17.8670 C.2   204  GLN204      0.2260
     71  O         11.2680  121.9010   18.3440 O.2   204  GLN204     -0.2867
     72  CB        12.7970  123.8110   19.6980 C.3   204  GLN204      0.0367
     73  CG        14.1690  124.2450   20.0660 C.3   204  GLN204      0.0905
     74  CD        14.3660  125.7620   19.9240 C.2   204  GLN204      0.2608
     75  OE1       15.2060  126.2380   19.1270 O.2   204  GLN204     -0.2717
     76  NE2       13.5760  126.5250   20.6780 N.am  204  GLN204     -0.0878
     77  N         26.7590  118.1850   23.2290 N.3   294  LYS294     -0.1245
     78  CA        25.3970  117.6600   23.0530 C.3   294  LYS294      0.1561
     79  C         25.3350  116.2120   23.5750 C.2   294  LYS294      0.2260
     80  O         26.2000  115.3880   23.2480 O.2   294  LYS294     -0.2867
     81  CB        24.9620  117.7750   21.5950 C.3   294  LYS294      0.0271
     82  CG        23.5210  117.3680   21.3720 C.3   294  LYS294      0.0035
     83  CD        23.0440  117.7150   20.0070 C.3   294  LYS294      0.0206
     84  CE        21.5820  117.4510   19.9580 C.3   294  LYS294      0.1093
     85  NZ        20.9930  118.2470   18.8940 N.3   294  LYS294     -0.1314
     86  N         18.8730  122.4810   30.1440 N.3   324  TYR324     -0.1241
     87  CA        17.7410  122.3840   29.2450 C.3   324  TYR324      0.1605
     88  C         17.7060  121.0330   28.5600 C.2   324  TYR324      0.2264
     89  O         18.7340  120.5410   28.0840 O.2   324  TYR324     -0.2867
     90  CB        17.8350  123.4790   28.1770 C.3   324  TYR324      0.0534
     91  CG        16.5820  123.6290   27.3650 C.ar  324  TYR324     -0.0201
     92  CD1       15.4930  124.2810   27.8910 C.ar  324  TYR324     -0.0009
     93  CD2       16.4840  123.1140   26.0510 C.ar  324  TYR324     -0.0009
     94  CE1       14.3030  124.4010   27.1630 C.ar  324  TYR324      0.0417
     95  CE2       15.2740  123.2460   25.2900 C.ar  324  TYR324      0.0417
     96  CZ        14.1980  123.8860   25.8620 C.ar  324  TYR324      0.1957
     97  OH        12.9900  124.0870   25.2100 O.3   324  TYR324     -0.2866
     98  N         15.0300  118.2370   25.9680 N.3   326  LEU326     -0.1245
     99  CA        13.9140  118.0140   25.0960 C.3   326  LEU326      0.1561
    100  C         13.8360  116.5030   24.8940 C.2   326  LEU326      0.2260
    101  O         14.8520  115.8160   24.8730 O.2   326  LEU326     -0.2867
    102  CB        14.1750  118.7040   23.7680 C.3   326  LEU326      0.0270
    103  CG        13.9310  120.2100   23.6820 C.3   326  LEU326      0.0019
    104  CD1       14.4600  120.7530   22.4000 C.3   326  LEU326      0.0001
    105  CD2       12.4840  120.5900   23.8400 C.3   326  LEU326      0.0001
    106  N         21.9110  119.7200   26.5930 N.3   341  PHE341     -0.1241
    107  CA        23.1720  120.4510   26.3040 C.3   341  PHE341      0.1605
    108  C         23.9730  120.7690   27.5720 C.2   341  PHE341      0.2264
    109  O         23.4410  121.3100   28.5430 O.2   341  PHE341     -0.2867
    110  CB        22.8510  121.8190   25.6740 C.3   341  PHE341      0.0534
    111  CG        22.1380  121.7660   24.3340 C.ar  341  PHE341     -0.0203
    112  CD1       20.8290  122.2480   24.2020 C.ar  341  PHE341     -0.0042
    113  CD2       22.7960  121.2770   23.2080 C.ar  341  PHE341     -0.0042
    114  CE1       20.1540  122.1930   22.9530 C.ar  341  PHE341     -0.0003
    115  CE2       22.1670  121.2200   21.9640 C.ar  341  PHE341     -0.0003
    116  CZ        20.8320  121.6810   21.8200 C.ar  341  PHE341     -0.0000
    117  N         27.0920  126.5830   19.1710 N.3   396  TYR396     -0.1241
    118  CA        26.4870  126.4070   17.8550 C.3   396  TYR396      0.1605
    119  C         27.0870  127.3600   16.8460 C.2   396  TYR396      0.2264
    120  O         27.1000  127.0780   15.6340 O.2   396  TYR396     -0.2867
    121  CB        25.0240  126.7450   17.9040 C.3   396  TYR396      0.0534
    122  CG        24.3310  126.4200   19.1910 C.ar  396  TYR396     -0.0201
    123  CD1       24.4760  125.1640   19.8110 C.ar  396  TYR396     -0.0009
    124  CD2       23.4990  127.3430   19.7790 C.ar  396  TYR396     -0.0009
    125  CE1       23.8100  124.8650   20.9740 C.ar  396  TYR396      0.0417
    126  CE2       22.8260  127.0470   20.9620 C.ar  396  TYR396      0.0417
    127  CZ        22.9840  125.8150   21.5490 C.ar  396  TYR396      0.1957
    128  OH        22.2830  125.5640   22.7060 O.3   396  TYR396     -0.2866
    129  N         21.9160  129.4090   12.8960 N.3   433  TYR433     -0.1241
    130  CA        21.1260  128.1930   12.6000 C.3   433  TYR433      0.1605
    131  C         21.3560  127.6130   11.1800 C.2   433  TYR433      0.2264
    132  O         21.9510  128.2640   10.2840 O.2   433  TYR433     -0.2867
    133  CB        19.6160  128.4930   12.7340 C.3   433  TYR433      0.0534
    134  CG        19.1870  128.8540   14.1360 C.ar  433  TYR433     -0.0201
    135  CD1       19.5670  130.0700   14.7230 C.ar  433  TYR433     -0.0009
    136  CD2       18.4200  127.9770   14.8740 C.ar  433  TYR433     -0.0009
    137  CE1       19.2020  130.3740   16.0310 C.ar  433  TYR433      0.0417
    138  CE2       18.0350  128.2510   16.1570 C.ar  433  TYR433      0.0417
    139  CZ        18.4230  129.4590   16.7350 C.ar  433  TYR433      0.1957
    140  OH        18.0490  129.7460   18.0210 O.3   433  TYR433     -0.2866
@<TRIPOS>BOND
     1   132   131    2
     2   131   130    1
     3   130   133    1
     4   130   129    1
     5   133   134    1
     6     8     7    2
     7    12    11    2
     8    18    17    2
     9    17    16    1
    10   134   135   ar
    11   134   136   ar
    12     7     6    1
    13     7     9   am
    14    11    10    1
    15    11    15   am
    16     6     5    1
    17     9    10    1
    18    10    13    1
    19   135   137   ar
    20     5     3   am
    21   136   138   ar
    22    15    16    1
    23    16    19    1
    24   120   119    2
    25     3     2    1
    26     3     4    2
    27    14    13    1
    28     2     1    1
    29   137   139   ar
    30   138   139   ar
    31    19    20    1
    32   139   140    1
    33   119   118    1
    34    20    22   ar
    35    20    21   ar
    36    68    69    1
    37   118   121    1
    38   118   117    1
    39    70    69    1
    40    70    71    2
    41   121   122    1
    42    22    24   ar
    43    69    72    1
    44    21    23   ar
    45    24    25   ar
    46    85    84    1
    47    75    74    2
    48   122   124   ar
    49   122   123   ar
    50    57    59    1
    51    57    56    1
    52    23    25   ar
    53    52    53    1
    54    53    56    1
    55    53    54    1
    56    25    26    1
    57    72    73    1
    58    56    58    1
    59   124   126   ar
    60   123   125   ar
    61    74    73    1
    62    74    76   am
    63    84    83    1
    64    83    82    1
    65    55    54    2
    66    54    60   am
    67   126   127   ar
    68   125   127   ar
    69    49    48    2
    70    82    81    1
    71   127   128    1
    72    81    78    1
    73    60    61    1
    74   116   115   ar
    75   116   114   ar
    76   115   113   ar
    77   104   103    1
    78    48    47    1
    79    62    61    1
    80    62    63    2
    81    61    64    1
    82   114   112   ar
    83    78    77    1
    84    78    79    1
    85    47    50    1
    86    47    46    1
    87   113   111   ar
    88    50    51    1
    89    80    79    2
    90   103   102    1
    91   103   105    1
    92   102    99    1
    93    41    40    2
    94    64    65    1
    95    64    66    1
    96   112   111   ar
    97    65    67    1
    98   111   110    1
    99    46    40   am
   100    40    39    1
   101    37    35   ar
   102    37    36   ar
   103   101   100    2
   104   100    99    1
   105    35    33   ar
   106    99    98    1
   107    97    96    1
   108    95    96   ar
   109    95    93   ar
   110   110   107    1
   111    36    34   ar
   112    44    43    1
   113    43    45    1
   114    43    42    1
   115    96    94   ar
   116    93    91   ar
   117    39    42    1
   118    39    38    1
   119    33    32   ar
   120   107   106    1
   121   107   108    1
   122    30    29    2
   123    34    32   ar
   124    94    92   ar
   125    32    31    1
   126    91    92   ar
   127    91    90    1
   128   108   109    2
   129    29    28    1
   130    89    88    2
   131    90    87    1
   132    28    31    1
   133    28    27    1
   134    88    87    1
   135    87    86    1
