@<TRIPOS>MOLECULE
tmp/2c65A01.pdb
 192 186 0 0 0
SMALL
GASTEIGER

@<TRIPOS>ATOM
      1  N         57.0100  150.5670   14.7220 N.3    55  GLY55      -0.1210
      2  CA        56.3730  149.6590   15.6760 C.3    55  GLY55       0.1956
      3  C         56.9030  149.8930   17.0790 C.2    55  GLY55       0.2612
      4  O         57.1100  151.0470   17.4920 O.2    55  GLY55      -0.2717
      5  N         57.1390  148.8050   17.8120 N.am   56  GLY56      -0.1942
      6  CA        57.7050  148.8960   19.1610 C.3    56  GLY56       0.2014
      7  C         58.9630  149.7370   19.1850 C.2    56  GLY56       0.2640
      8  O         59.8060  149.6120   18.2970 O.2    56  GLY56      -0.2714
      9  N         59.0860  150.6020   20.1910 N.am   57  SER57      -0.1935
     10  CA        60.2050  151.5520   20.2350 C.3    57  SER57       0.2055
     11  C         60.7610  151.8000   21.6380 C.2    57  SER57       0.2643
     12  O         61.9830  151.7630   21.8440 O.2    57  SER57      -0.2714
     13  CB        59.7950  152.8790   19.5920 C.3    57  SER57       0.2130
     14  OG        60.9190  153.7310   19.4500 O.3    57  SER57      -0.2179
     15  N         59.8720  152.0540   22.5960 N.am   58  TYR58      -0.1973
     16  CA        60.2870  152.4770   23.9320 C.3    58  TYR58       0.1639
     17  C         60.7450  151.3420   24.8200 C.2    58  TYR58       0.2290
     18  O         60.1680  150.2550   24.8170 O.2    58  TYR58      -0.2864
     19  CB        59.1780  153.2810   24.6180 C.3    58  TYR58       0.0560
     20  CG        58.8240  154.4670   23.7720 C.ar   58  TYR58      -0.0198
     21  CD1       57.6670  154.4720   23.0010 C.ar   58  TYR58      -0.0009
     22  CD2       59.6940  155.5530   23.6820 C.ar   58  TYR58      -0.0009
     23  CE1       57.3630  155.5570   22.1750 C.ar   58  TYR58       0.0417
     24  CE2       59.4070  156.6370   22.8670 C.ar   58  TYR58       0.0417
     25  CZ        58.2440  156.6290   22.1130 C.ar   58  TYR58       0.1957
     26  OH        57.9660  157.6980   21.3040 O.3    58  TYR58      -0.2866
     27  N         55.0090  162.7290   36.2740 N.3   100  PRO100     -0.2116
     28  CA        54.3350  161.8170   35.3430 C.3   100  PRO100      0.1372
     29  C         52.8200  161.9980   35.2430 C.2   100  PRO100      0.2244
     30  O         52.2620  161.8520   34.1540 O.2   100  PRO100     -0.2868
     31  CB        54.6750  160.4290   35.8940 C.3   100  PRO100      0.0268
     32  CG        54.9310  160.6460   37.3500 C.3   100  PRO100      0.0207
     33  CD        55.5470  162.0210   37.4530 C.3   100  PRO100      0.0892
     34  N         49.2640  163.9250   35.1470 N.3   102  PRO102     -0.2116
     35  CA        48.6160  165.2040   34.8830 C.3   102  PRO102      0.1372
     36  C         47.8720  165.6590   36.1400 C.2   102  PRO102      0.2244
     37  O         46.9540  164.9670   36.5940 O.2   102  PRO102     -0.2868
     38  CB        47.6280  164.8800   33.7550 C.3   102  PRO102      0.0268
     39  CG        48.1520  163.6390   33.1290 C.3   102  PRO102      0.0207
     40  CD        48.7660  162.8620   34.2540 C.3   102  PRO102      0.0892
     41  N         44.0910  156.1900   40.4320 N.3   117  TRP117     -0.1241
     42  CA        45.3900  155.5690   40.1920 C.3   117  TRP117      0.1605
     43  C         45.7660  154.6150   41.3260 C.2   117  TRP117      0.2264
     44  O         46.2690  153.5080   41.0950 O.2   117  TRP117     -0.2867
     45  CB        46.4700  156.6420   40.0160 C.3   117  TRP117      0.0550
     46  CG        46.2690  157.5630   38.8420 C.ar  117  TRP117      0.0003
     47  CD1       45.8860  158.8760   38.8830 C.ar  117  TRP117      0.0946
     48  CD2       46.4590  157.2460   37.4530 C.ar  117  TRP117      0.0152
     49  NE1       45.8280  159.3960   37.6120 N.ar  117  TRP117     -0.2442
     50  CE2       46.1750  158.4200   36.7140 C.ar  117  TRP117      0.0810
     51  CE3       46.8450  156.0860   36.7600 C.ar  117  TRP117      0.0012
     52  CZ2       46.2570  158.4670   35.3160 C.ar  117  TRP117      0.0191
     53  CZ3       46.9300  156.1350   35.3710 C.ar  117  TRP117      0.0001
     54  CH2       46.6400  157.3210   34.6640 C.ar  117  TRP117      0.0015
     55  N         40.3910  160.9830   31.8800 N.3   162  LEU162     -0.1245
     56  CA        41.8160  160.6730   31.8940 C.3   162  LEU162      0.1561
     57  C         42.0450  159.1650   31.9840 C.2   162  LEU162      0.2260
     58  O         42.9040  158.6220   31.2970 O.2   162  LEU162     -0.2867
     59  CB        42.5450  161.4130   33.0310 C.3   162  LEU162      0.0270
     60  CG        44.0580  161.1580   33.1240 C.3   162  LEU162      0.0019
     61  CD1       44.7720  161.5470   31.8250 C.3   162  LEU162      0.0001
     62  CD2       44.6680  161.8960   34.3120 C.3   162  LEU162      0.0001
     63  N         41.4460  157.6400   28.5700 N.3   165  LEU165     -0.1231
     64  CA        42.6120  157.8920   27.7390 C.3   165  LEU165      0.1693
     65  C         43.7400  156.9240   28.1040 C.2   165  LEU165      0.2592
     66  O         44.3760  156.3410   27.2220 O.2   165  LEU165     -0.2718
     67  CB        43.0550  159.3570   27.8980 C.3   165  LEU165      0.0284
     68  CG        44.1720  159.8670   26.9810 C.3   165  LEU165      0.0019
     69  CD1       44.0410  161.3630   26.8140 C.3   165  LEU165      0.0001
     70  CD2       45.5550  159.4920   27.5230 C.3   165  LEU165      0.0001
     71  N         43.9800  156.7650   29.4070 N.am  166  PHE166     -0.1976
     72  CA        44.9580  155.8030   29.9330 C.3   166  PHE166      0.1639
     73  C         44.7290  154.4000   29.3640 C.2   166  PHE166      0.2290
     74  O         45.6630  153.7710   28.8610 O.2   166  PHE166     -0.2864
     75  CB        44.9140  155.8090   31.4700 C.3   166  PHE166      0.0560
     76  CG        45.7160  154.7090   32.1300 C.ar  166  PHE166     -0.0200
     77  CD1       47.0650  154.5110   31.8220 C.ar  166  PHE166     -0.0042
     78  CD2       45.1240  153.8960   33.0900 C.ar  166  PHE166     -0.0042
     79  CE1       47.7990  153.4910   32.4600 C.ar  166  PHE166     -0.0003
     80  CE2       45.8490  152.8780   33.7260 C.ar  166  PHE166     -0.0003
     81  CZ        47.1850  152.6830   33.4140 C.ar  166  PHE166     -0.0000
     82  N         45.3570  154.2990   25.5370 N.3   169  LEU169     -0.1231
     83  CA        46.7740  154.4680   25.2350 C.3   169  LEU169      0.1693
     84  C         47.5730  153.2470   25.6390 C.2   169  LEU169      0.2592
     85  O         48.5230  152.8730   24.9570 O.2   169  LEU169     -0.2718
     86  CB        47.2960  155.6980   25.9710 C.3   169  LEU169      0.0284
     87  CG        48.7570  156.1180   25.8570 C.3   169  LEU169      0.0019
     88  CD1       49.1880  156.2380   24.3990 C.3   169  LEU169      0.0001
     89  CD2       48.9190  157.4430   26.5830 C.3   169  LEU169      0.0001
     90  N         47.1710  152.6280   26.7430 N.am  170  CYS170     -0.1970
     91  CA        47.8810  151.4820   27.2950 C.3   170  CYS170      0.1712
     92  C         47.6940  150.2160   26.4610 C.2   170  CYS170      0.2296
     93  O         48.6550  149.4690   26.2370 O.2   170  CYS170     -0.2864
     94  CB        47.4160  151.2340   28.7290 C.3   170  CYS170      0.0983
     95  SG        48.4100  150.0580   29.6190 S.3   170  CYS170     -0.0798
     96  N         54.3450  152.3650   34.4010 N.3   196  ILE196     -0.1231
     97  CA        53.8810  152.1880   33.0340 C.3   196  ILE196      0.1692
     98  C         53.6550  153.5260   32.3150 C.2   196  ILE196      0.2591
     99  O         53.8390  153.6090   31.1030 O.2   196  ILE196     -0.2718
    100  CB        52.6320  151.2540   32.9580 C.3   196  ILE196      0.0266
    101  CG1       52.5420  150.5820   31.5830 C.3   196  ILE196      0.0019
    102  CG2       51.3430  151.9950   33.3390 C.3   196  ILE196      0.0020
    103  CD1       51.4430  149.5140   31.5070 C.3   196  ILE196      0.0001
    104  N         53.2750  154.5700   33.0570 N.am  197  ILE197     -0.1980
    105  CA        52.9480  155.8570   32.4250 C.3   197  ILE197      0.1595
    106  C         54.1270  156.8130   32.3290 C.2   197  ILE197      0.2287
    107  O         54.0440  157.8340   31.6490 O.2   197  ILE197     -0.2864
    108  CB        51.7470  156.6080   33.1030 C.3   197  ILE197      0.0276
    109  CG1       52.1490  157.2220   34.4510 C.3   197  ILE197      0.0022
    110  CG2       50.5210  155.7050   33.2260 C.3   197  ILE197      0.0022
    111  CD1       51.2680  158.3800   34.8780 C.3   197  ILE197      0.0001
    112  N         58.7320  154.5980   29.0860 N.3   204  GLN204     -0.1245
    113  CA        59.0230  155.4330   27.9160 C.3   204  GLN204      0.1566
    114  C         60.3370  156.2040   28.0230 C.2   204  GLN204      0.2260
    115  O         60.5730  157.1370   27.2490 O.2   204  GLN204     -0.2867
    116  CB        57.8600  156.3920   27.6380 C.3   204  GLN204      0.0367
    117  CG        56.6340  155.7050   27.0400 C.3   204  GLN204      0.0905
    118  CD        55.9790  154.7390   28.0020 C.2   204  GLN204      0.2608
    119  OE1       56.1350  153.5250   27.8760 O.2   204  GLN204     -0.2717
    120  NE2       55.2540  155.2690   28.9760 N.am  204  GLN204     -0.0878
    121  N         50.6980  154.4930   14.2520 N.3   294  LYS294     -0.1245
    122  CA        51.8240  155.2530   14.7960 C.3   294  LYS294      0.1561
    123  C         52.2500  156.2580   13.7400 C.2   294  LYS294      0.2260
    124  O         52.5430  155.8770   12.6070 O.2   294  LYS294     -0.2867
    125  CB        52.9790  154.3140   15.1720 C.3   294  LYS294      0.0271
    126  CG        54.1330  154.9860   15.9210 C.3   294  LYS294      0.0035
    127  CD        55.1440  153.9440   16.3930 C.3   294  LYS294      0.0206
    128  CE        56.3330  154.5840   17.1060 C.3   294  LYS294      0.1093
    129  NZ        56.0170  154.9940   18.4980 N.3   294  LYS294     -0.1314
    130  N         49.2930  165.1110   26.2600 N.3   314  ILE314     -0.1245
    131  CA        48.2210  164.1950   26.6300 C.3   314  ILE314      0.1561
    132  C         46.9520  164.9410   26.2510 C.2   314  ILE314      0.2260
    133  O         46.6320  165.9740   26.8330 O.2   314  ILE314     -0.2867
    134  CB        48.2650  163.8480   28.1390 C.3   314  ILE314      0.0252
    135  CG1       49.5600  163.0840   28.4640 C.3   314  ILE314      0.0019
    136  CG2       47.0240  163.0540   28.5550 C.3   314  ILE314      0.0019
    137  CD1       49.9340  163.0630   29.9470 C.3   314  ILE314      0.0001
    138  N         48.0400  161.0970   22.3640 N.3   324  TYR324     -0.1241
    139  CA        49.3400  161.1160   23.0340 C.3   324  TYR324      0.1605
    140  C         50.4910  161.2770   22.0730 C.2   324  TYR324      0.2264
    141  O         50.5560  160.6050   21.0430 O.2   324  TYR324     -0.2867
    142  CB        49.5500  159.8290   23.8300 C.3   324  TYR324      0.0534
    143  CG        50.7370  159.8510   24.7710 C.ar  324  TYR324     -0.0201
    144  CD1       50.7230  160.6400   25.9260 C.ar  324  TYR324     -0.0009
    145  CD2       51.8520  159.0440   24.5310 C.ar  324  TYR324     -0.0009
    146  CE1       51.7970  160.6470   26.8050 C.ar  324  TYR324      0.0417
    147  CE2       52.9400  159.0430   25.4100 C.ar  324  TYR324      0.0417
    148  CZ        52.8930  159.8450   26.5460 C.ar  324  TYR324      0.1957
    149  OH        53.9420  159.8500   27.4260 O.3   324  TYR324     -0.2866
    150  N         54.9820  162.0660   21.9060 N.3   326  LEU326     -0.1245
    151  CA        56.2980  162.2340   22.5050 C.3   326  LEU326      0.1561
    152  C         57.2410  162.8590   21.4740 C.2   326  LEU326      0.2260
    153  O         57.0990  162.6420   20.2720 O.2   326  LEU326     -0.2867
    154  CB        56.8540  160.8850   22.9590 C.3   326  LEU326      0.0270
    155  CG        56.2280  160.1840   24.1690 C.3   326  LEU326      0.0019
    156  CD1       56.6790  158.7300   24.2310 C.3   326  LEU326      0.0001
    157  CD2       56.5720  160.9160   25.4720 C.3   326  LEU326      0.0001
    158  N         50.2180  158.6100   18.5960 N.3   341  PHE341     -0.1241
    159  CA        49.4160  157.4030   18.3800 C.3   341  PHE341      0.1605
    160  C         47.9670  157.7900   18.0900 C.2   341  PHE341      0.2264
    161  O         47.3850  158.6210   18.8070 O.2   341  PHE341     -0.2867
    162  CB        49.4140  156.5170   19.6270 C.3   341  PHE341      0.0534
    163  CG        50.7370  155.8620   19.9400 C.ar  341  PHE341     -0.0203
    164  CD1       51.3750  156.1160   21.1550 C.ar  341  PHE341     -0.0042
    165  CD2       51.3230  154.9700   19.0500 C.ar  341  PHE341     -0.0042
    166  CE1       52.5970  155.4970   21.4730 C.ar  341  PHE341     -0.0003
    167  CE2       52.5400  154.3530   19.3500 C.ar  341  PHE341     -0.0003
    168  CZ        53.1750  154.6100   20.5630 C.ar  341  PHE341     -0.0000
    169  N         49.3150  147.3130   20.1710 N.3   396  TYR396     -0.1241
    170  CA        50.6580  146.7540   20.4480 C.3   396  TYR396      0.1605
    171  C         50.6180  145.2570   20.7060 C.2   396  TYR396      0.2264
    172  O         51.5840  144.5280   20.4320 O.2   396  TYR396     -0.2867
    173  CB        51.2850  147.4150   21.6910 C.3   396  TYR396      0.0534
    174  CG        50.9070  148.8670   21.9280 C.ar  396  TYR396     -0.0201
    175  CD1       50.9740  149.8070   20.8980 C.ar  396  TYR396     -0.0009
    176  CD2       50.5060  149.3040   23.1930 C.ar  396  TYR396     -0.0009
    177  CE1       50.6310  151.1410   21.1100 C.ar  396  TYR396      0.0417
    178  CE2       50.1500  150.6380   23.4120 C.ar  396  TYR396      0.0417
    179  CZ        50.2250  151.5510   22.3690 C.ar  396  TYR396      0.1957
    180  OH        49.8770  152.8760   22.5730 O.3   396  TYR396     -0.2866
    181  N         55.1420  144.0000   25.5770 N.3   433  TYR433     -0.1241
    182  CA        56.3100  144.8070   25.2250 C.3   433  TYR433      0.1605
    183  C         57.4400  143.9570   24.6450 C.2   433  TYR433      0.2264
    184  O         57.4110  142.7260   24.7300 O.2   433  TYR433     -0.2867
    185  CB        56.8330  145.5190   26.4820 C.3   433  TYR433      0.0534
    186  CG        55.9270  146.6100   27.0160 C.ar  433  TYR433     -0.0201
    187  CD1       54.7230  146.3010   27.6490 C.ar  433  TYR433     -0.0009
    188  CD2       56.2890  147.9560   26.9040 C.ar  433  TYR433     -0.0009
    189  CE1       53.8810  147.3080   28.1390 C.ar  433  TYR433      0.0417
    190  CE2       55.4590  148.9660   27.3920 C.ar  433  TYR433      0.0417
    191  CZ        54.2650  148.6340   28.0100 C.ar  433  TYR433      0.1957
    192  OH        53.4560  149.6450   28.4820 O.3   433  TYR433     -0.2866
@<TRIPOS>BOND
     1   124   123    2
     2   123   122    1
     3   121   122    1
     4     1     2    1
     5   122   125    1
     6   125   126    1
     7     2     3    1
     8   126   127    1
     9   127   128    1
    10     3     4    2
    11     3     5   am
    12   128   129    1
    13     5     6    1
    14   160   159    1
    15   160   161    2
    16     8     7    2
    17   159   158    1
    18   159   162    1
    19   165   167   ar
    20   165   163   ar
    21     6     7    1
    22     7     9   am
    23   167   168   ar
    24    14    13    1
    25    13    10    1
    26   162   163    1
    27   163   164   ar
    28   169   170    1
    29     9    10    1
    30    10    11    1
    31   153   152    2
    32   172   171    2
    33   170   171    1
    34   170   173    1
    35   168   166   ar
    36   175   177   ar
    37   175   174   ar
    38   141   140    2
    39   177   179   ar
    40   164   166   ar
    41    26    25    1
    42   152   151    1
    43    11    12    2
    44    11    15   am
    45   173   174    1
    46   150   151    1
    47   174   176   ar
    48   140   139    1
    49    25    23   ar
    50    25    24   ar
    51    23    21   ar
    52   138   139    1
    53   179   180    1
    54   179   178   ar
    55   151   154    1
    56    15    16    1
    57    24    22   ar
    58   154   155    1
    59    21    20   ar
    60   139   142    1
    61   176   178   ar
    62    22    20   ar
    63    20    19    1
    64   142   143    1
    65    16    19    1
    66    16    17    1
    67   155   156    1
    68   155   157    1
    69    88    87    1
    70   145   143   ar
    71   145   147   ar
    72   183   184    2
    73   183   182    1
    74   143   144   ar
    75    18    17    2
    76    85    84    2
    77   182   181    1
    78   182   185    1
    79    83    82    1
    80    83    84    1
    81    83    86    1
    82   147   148   ar
    83    84    90   am
    84    87    86    1
    85    87    89    1
    86   144   146   ar
    87    93    92    2
    88   132   131    1
    89   132   133    2
    90   130   131    1
    91    92    91    1
    92   185   186    1
    93   148   146   ar
    94   148   149    1
    95   131   134    1
    96    90    91    1
    97    69    68    1
    98   188   186   ar
    99   188   190   ar
   100    68    70    1
   101    68    67    1
   102   186   187   ar
   103   117   116    1
   104   117   118    1
   105    66    65    2
   106   115   114    2
   107    91    94    1
   108   190   191   ar
   109   116   113    1
   110   187   189   ar
   111    64    67    1
   112    64    65    1
   113    64    63    1
   114   119   118    2
   115   113   114    1
   116   113   112    1
   117   118   120   am
   118   191   189   ar
   119   191   192    1
   120    65    71   am
   121   134   135    1
   122   134   136    1
   123   135   137    1
   124    94    95    1
   125    74    73    2
   126    73    72    1
   127    71    72    1
   128    72    75    1
   129    99    98    2
   130    58    57    2
   131    75    76    1
   132   103   101    1
   133   101   100    1
   134   107   106    2
   135    77    76   ar
   136    77    79   ar
   137    61    60    1
   138    55    56    1
   139    56    57    1
   140    56    59    1
   141    76    78   ar
   142    98    97    1
   143    98   104   am
   144   106   105    1
   145   105   104    1
   146   105   108    1
   147    79    81   ar
   148   100    97    1
   149   100   102    1
   150    59    60    1
   151    97    96    1
   152    78    80   ar
   153   108   110    1
   154   108   109    1
   155    60    62    1
   156    39    38    1
   157    39    40    1
   158    81    80   ar
   159    38    35    1
   160    30    29    2
   161    40    34    1
   162   109   111    1
   163    54    52   ar
   164    54    53   ar
   165    35    34    1
   166    35    36    1
   167    29    28    1
   168    52    50   ar
   169    28    31    1
   170    28    27    1
   171    53    51   ar
   172    31    32    1
   173    36    37    2
   174    27    33    1
   175    50    48   ar
   176    50    49   ar
   177    51    48   ar
   178    32    33    1
   179    48    46   ar
   180    49    47   ar
   181    46    47   ar
   182    46    45    1
   183    45    42    1
   184    42    41    1
   185    42    43    1
   186    44    43    2
