@<TRIPOS>MOLECULE
tmp/2c67B01.pdb
 122 118 0 0 0
SMALL
GASTEIGER

@<TRIPOS>ATOM
      1  N         16.6470  121.6880   15.0190 N.3    58  TYR58      -0.1241
      2  CA        15.2790  122.2060   15.0780 C.3    58  TYR58       0.1605
      3  C         14.9850  123.1880   13.9670 C.2    58  TYR58       0.2264
      4  O         15.8290  124.0060   13.6130 O.2    58  TYR58      -0.2867
      5  CB        15.0120  122.8720   16.4370 C.3    58  TYR58       0.0534
      6  CG        15.2350  121.9050   17.5520 C.ar   58  TYR58      -0.0201
      7  CD1       16.3470  122.0150   18.3800 C.ar   58  TYR58      -0.0009
      8  CD2       14.3640  120.8330   17.7400 C.ar   58  TYR58      -0.0009
      9  CE1       16.5750  121.0840   19.3890 C.ar   58  TYR58       0.0417
     10  CE2       14.5820  119.9020   18.7410 C.ar   58  TYR58       0.0417
     11  CZ        15.6880  120.0380   19.5540 C.ar   58  TYR58       0.1957
     12  OH        15.9110  119.1160   20.5250 O.3    58  TYR58      -0.2866
     13  N         21.0960  129.9830   26.7110 N.3   169  LEU169     -0.1231
     14  CA        20.4670  129.0190   25.8060 C.3   169  LEU169      0.1693
     15  C         20.4380  129.5040   24.3610 C.2   169  LEU169      0.2592
     16  O         20.6790  128.7260   23.4450 O.2   169  LEU169     -0.2718
     17  CB        19.0450  128.7200   26.2750 C.3   169  LEU169      0.0284
     18  CG        18.2080  127.7770   25.4190 C.3   169  LEU169      0.0019
     19  CD1       18.8980  126.4110   25.2370 C.3   169  LEU169      0.0001
     20  CD2       16.8120  127.6450   26.0350 C.3   169  LEU169      0.0001
     21  N         20.1240  130.7800   24.1650 N.am  170  CYS170     -0.1970
     22  CA        19.9860  131.3210   22.8140 C.3   170  CYS170      0.1712
     23  C         21.3140  131.3900   22.0740 C.2   170  CYS170      0.2296
     24  O         21.3630  131.1740   20.8560 O.2   170  CYS170     -0.2864
     25  CB        19.3380  132.7140   22.8530 C.3   170  CYS170      0.0983
     26  SG        17.5690  132.6720   23.1760 S.3   170  CYS170     -0.0798
     27  N         20.0130  139.7660   17.7470 N.3   186  TYR186     -0.1241
     28  CA        19.9060  138.3280   17.5110 C.3   186  TYR186      0.1605
     29  C         18.4890  137.8290   17.7650 C.2   186  TYR186      0.2264
     30  O         17.9360  137.0660   16.9700 O.2   186  TYR186     -0.2867
     31  CB        20.9100  137.5730   18.3980 C.3   186  TYR186      0.0534
     32  CG        21.0700  136.1160   18.0380 C.ar  186  TYR186     -0.0201
     33  CD1       21.9530  135.7220   17.0370 C.ar  186  TYR186     -0.0009
     34  CD2       20.3250  135.1300   18.6900 C.ar  186  TYR186     -0.0009
     35  CE1       22.1040  134.3780   16.7000 C.ar  186  TYR186      0.0417
     36  CE2       20.4660  133.7810   18.3520 C.ar  186  TYR186      0.0417
     37  CZ        21.3530  133.4180   17.3620 C.ar  186  TYR186      0.1957
     38  OH        21.5030  132.0900   17.0260 O.3   186  TYR186     -0.2866
     39  N         11.5940  132.9340   19.2540 N.3   196  ILE196     -0.1231
     40  CA        12.8780  132.2580   19.4420 C.3   196  ILE196      0.1692
     41  C         12.8150  131.1850   20.5330 C.2   196  ILE196      0.2591
     42  O         13.4910  130.1570   20.4320 O.2   196  ILE196     -0.2718
     43  CB        14.0350  133.2740   19.6900 C.3   196  ILE196      0.0266
     44  CG1       15.3820  132.6640   19.2940 C.3   196  ILE196      0.0019
     45  CG2       14.0320  133.8100   21.1300 C.3   196  ILE196      0.0020
     46  CD1       16.5880  133.6070   19.4870 C.3   196  ILE196      0.0001
     47  N         11.9790  131.4060   21.5490 N.am  197  ILE197     -0.1980
     48  CA        11.9890  130.5200   22.7230 C.3   197  ILE197      0.1595
     49  C         10.9440  129.4020   22.6820 C.2   197  ILE197      0.2287
     50  O         11.0010  128.4550   23.4730 O.2   197  ILE197     -0.2864
     51  CB        11.8880  131.3250   24.0500 C.3   197  ILE197      0.0276
     52  CG1       12.6020  130.5730   25.1780 C.3   197  ILE197      0.0022
     53  CG2       10.4330  131.6280   24.4070 C.3   197  ILE197      0.0022
     54  CD1       14.1050  130.3870   24.9440 C.3   197  ILE197      0.0001
     55  N         11.7510  125.8210   17.8900 N.3   204  GLN204     -0.1245
     56  CA        11.9920  124.4230   18.2520 C.3   204  GLN204      0.1566
     57  C         10.8200  123.5020   17.9170 C.2   204  GLN204      0.2260
     58  O         10.7210  122.4200   18.4800 O.2   204  GLN204     -0.2867
     59  CB        12.3470  124.2920   19.7440 C.3   204  GLN204      0.0367
     60  CG        13.7380  124.8190   20.1070 C.3   204  GLN204      0.0905
     61  CD        13.8770  126.3170   19.8550 C.2   204  GLN204      0.2608
     62  OE1       14.5960  126.7470   18.9430 O.2   204  GLN204     -0.2717
     63  NE2       13.1810  127.1160   20.6530 N.am  204  GLN204     -0.0878
     64  N         18.6400  123.1670   29.9300 N.3   324  TYR324     -0.1241
     65  CA        17.4960  123.0550   29.0350 C.3   324  TYR324      0.1605
     66  C         17.4690  121.7090   28.3410 C.2   324  TYR324      0.2264
     67  O         18.4830  121.2520   27.8200 O.2   324  TYR324     -0.2867
     68  CB        17.5350  124.1700   27.9810 C.3   324  TYR324      0.0534
     69  CG        16.2650  124.2930   27.1620 C.ar  324  TYR324     -0.0201
     70  CD1       15.1040  124.8420   27.7240 C.ar  324  TYR324     -0.0009
     71  CD2       16.2260  123.8850   25.8260 C.ar  324  TYR324     -0.0009
     72  CE1       13.9360  124.9730   26.9830 C.ar  324  TYR324      0.0417
     73  CE2       15.0500  124.0180   25.0660 C.ar  324  TYR324      0.0417
     74  CZ        13.9170  124.5660   25.6600 C.ar  324  TYR324      0.1957
     75  OH        12.7420  124.7160   24.9470 O.3   324  TYR324     -0.2866
     76  N         14.8230  118.9260   25.8050 N.3   326  LEU326     -0.1245
     77  CA        13.6250  118.6330   25.0300 C.3   326  LEU326      0.1561
     78  C         13.5340  117.1260   24.8370 C.2   326  LEU326      0.2260
     79  O         14.5520  116.4370   24.8090 O.2   326  LEU326     -0.2867
     80  CB        13.6760  119.3280   23.6690 C.3   326  LEU326      0.0270
     81  CG        13.5790  120.8570   23.6390 C.3   326  LEU326      0.0019
     82  CD1       13.9970  121.3640   22.2650 C.3   326  LEU326      0.0001
     83  CD2       12.1760  121.3490   24.0000 C.3   326  LEU326      0.0001
     84  N         21.3460  120.4590   26.6600 N.3   341  PHE341     -0.1241
     85  CA        22.5320  121.2500   26.3170 C.3   341  PHE341      0.1605
     86  C         23.3200  121.5710   27.5620 C.2   341  PHE341      0.2264
     87  O         22.7370  122.0090   28.5590 O.2   341  PHE341     -0.2867
     88  CB        22.1350  122.5990   25.7020 C.3   341  PHE341      0.0534
     89  CG        21.5130  122.5010   24.3420 C.ar  341  PHE341     -0.0203
     90  CD1       20.2100  122.9400   24.1350 C.ar  341  PHE341     -0.0042
     91  CD2       22.2370  122.0010   23.2620 C.ar  341  PHE341     -0.0042
     92  CE1       19.6320  122.8600   22.8790 C.ar  341  PHE341     -0.0003
     93  CE2       21.6640  121.9190   22.0050 C.ar  341  PHE341     -0.0003
     94  CZ        20.3560  122.3490   21.8170 C.ar  341  PHE341     -0.0000
     95  N         26.2850  127.4890   18.9550 N.3   396  TYR396     -0.1241
     96  CA        25.6850  127.2970   17.6200 C.3   396  TYR396      0.1605
     97  C         26.2990  128.2310   16.6020 C.2   396  TYR396      0.2264
     98  O         26.3780  127.9100   15.4130 O.2   396  TYR396     -0.2867
     99  CB        24.1810  127.5900   17.6380 C.3   396  TYR396      0.0534
    100  CG        23.4960  127.2580   18.9280 C.ar  396  TYR396     -0.0201
    101  CD1       23.5070  125.9610   19.4250 C.ar  396  TYR396     -0.0009
    102  CD2       22.8440  128.2520   19.6630 C.ar  396  TYR396     -0.0009
    103  CE1       22.8790  125.6470   20.6220 C.ar  396  TYR396      0.0417
    104  CE2       22.2100  127.9540   20.8600 C.ar  396  TYR396      0.0417
    105  CZ        22.2380  126.6500   21.3340 C.ar  396  TYR396      0.1957
    106  OH        21.6200  126.3430   22.5130 O.3   396  TYR396     -0.2866
    107  N         22.3660  132.4120   12.5930 N.3   432  GLY432     -0.1210
    108  CA        22.7210  131.4870   13.6710 C.3   432  GLY432      0.1956
    109  C         22.1310  130.1020   13.4770 C.2   432  GLY432      0.2611
    110  O         22.5720  129.1460   14.1230 O.2   432  GLY432     -0.2717
    111  N         21.1390  130.0160   12.5840 N.am  433  TYR433     -0.1976
    112  CA        20.3270  128.8220   12.3530 C.3   433  TYR433      0.1639
    113  C         20.5560  128.2440   10.9580 C.2   433  TYR433      0.2290
    114  O         21.1520  128.8960   10.0940 O.2   433  TYR433     -0.2864
    115  CB        18.8450  129.1860   12.4800 C.3   433  TYR433      0.0560
    116  CG        18.4240  129.5410   13.8860 C.ar  433  TYR433     -0.0198
    117  CD1       18.8810  130.7120   14.5060 C.ar  433  TYR433     -0.0009
    118  CD2       17.5700  128.7110   14.5940 C.ar  433  TYR433     -0.0009
    119  CE1       18.5010  131.0310   15.8020 C.ar  433  TYR433      0.0417
    120  CE2       17.1780  129.0200   15.8880 C.ar  433  TYR433      0.0417
    121  CZ        17.6570  130.1760   16.4910 C.ar  433  TYR433      0.1957
    122  OH        17.2730  130.4920   17.7720 O.3   433  TYR433     -0.2866
@<TRIPOS>BOND
     1   114   113    2
     2   113   112    1
     3   112   115    1
     4   112   111    1
     5   115   116    1
     6   111   109   am
     7   107   108    1
     8   109   108    1
     9   109   110    2
    10     4     3    2
    11   116   117   ar
    12   116   118   ar
    13     3     2    1
    14   117   119   ar
    15   118   120   ar
    16     1     2    1
    17     2     5    1
    18    98    97    2
    19   119   121   ar
    20   120   121   ar
    21     5     6    1
    22   121   122    1
    23    97    96    1
    24    35    33   ar
    25    35    37   ar
    26    30    29    2
    27    38    37    1
    28    33    32   ar
    29    37    36   ar
    30    28    27    1
    31    28    29    1
    32    28    31    1
    33     6     8   ar
    34     6     7   ar
    35    96    99    1
    36    96    95    1
    37    99   100    1
    38     8    10   ar
    39    55    56    1
    40    57    56    1
    41    57    58    2
    42    32    31    1
    43    32    34   ar
    44    56    59    1
    45    36    34   ar
    46     7     9   ar
    47    10    11   ar
    48   100   101   ar
    49   100   102   ar
    50    62    61    2
    51    39    40    1
    52    44    46    1
    53    44    43    1
    54     9    11   ar
    55   101   103   ar
    56    40    43    1
    57    40    41    1
    58    11    12    1
    59   102   104   ar
    60    43    45    1
    61    59    60    1
    62    61    60    1
    63    61    63   am
    64    42    41    2
    65    41    47   am
    66   103   105   ar
    67    24    23    2
    68   104   105   ar
    69   105   106    1
    70    47    48    1
    71    94    93   ar
    72    94    92   ar
    73    93    91   ar
    74    23    22    1
    75    82    81    1
    76    49    48    1
    77    49    50    2
    78    48    51    1
    79    22    25    1
    80    22    21    1
    81    25    26    1
    82    92    90   ar
    83    91    89   ar
    84    16    15    2
    85    81    80    1
    86    81    83    1
    87    80    77    1
    88    51    53    1
    89    51    52    1
    90    90    89   ar
    91    21    15   am
    92    89    88    1
    93    15    14    1
    94    79    78    2
    95    78    77    1
    96    54    52    1
    97    75    74    1
    98    77    76    1
    99    73    74   ar
   100    73    71   ar
   101    19    18    1
   102    18    20    1
   103    18    17    1
   104    74    72   ar
   105    88    85    1
   106    14    17    1
   107    14    13    1
   108    71    69   ar
   109    85    84    1
   110    85    86    1
   111    72    70   ar
   112    69    70   ar
   113    69    68    1
   114    86    87    2
   115    67    66    2
   116    68    65    1
   117    66    65    1
   118    65    64    1
