@<TRIPOS>MOLECULE
tmp/2c6cA06.pdb
 214 205 0 0 0
SMALL
GASTEIGER

@<TRIPOS>ATOM
      1  N         21.8270   50.3920   36.7600 N.3   153  PHE153     -0.1227
      2  CA        20.6990   49.4910   36.7840 C.3   153  PHE153      0.1736
      3  C         20.3760   49.0710   35.3730 C.2   153  PHE153      0.2595
      4  O         20.3390   49.9340   34.4880 O.2   153  PHE153     -0.2718
      5  CB        19.4650   50.2680   37.3250 C.3   153  PHE153      0.0547
      6  CG        18.1810   49.5130   37.2600 C.ar  153  PHE153     -0.0202
      7  CD1       18.0280   48.3600   37.9560 C.ar  153  PHE153     -0.0042
      8  CD2       17.0950   50.0450   36.6090 C.ar  153  PHE153     -0.0042
      9  CE1       16.8400   47.6660   37.9170 C.ar  153  PHE153     -0.0003
     10  CE2       15.9210   49.3620   36.5500 C.ar  153  PHE153     -0.0003
     11  CZ        15.8230   48.1630   37.2150 C.ar  153  PHE153     -0.0000
     12  N         20.0260   47.7910   35.2000 N.am  154  ARG154     -0.1980
     13  CA        19.8230   47.1800   33.8660 C.3   154  ARG154      0.1597
     14  C         18.6560   47.7700   33.1010 C.2   154  ARG154      0.2287
     15  O         18.6280   47.8380   31.8620 O.2   154  ARG154     -0.2864
     16  CB        19.7320   45.6560   34.0070 C.3   154  ARG154      0.0334
     17  CG        18.4840   45.0950   34.6560 C.3   154  ARG154      0.0492
     18  CD        18.5680   43.6330   34.9330 C.3   154  ARG154      0.2205
     19  NE        19.2660   43.2190   36.1270 N.pl3 154  ARG154     -0.0865
     20  CZ        18.8300   43.4350   37.3700 C.cat 154  ARG154      0.5346
     21  NH1       17.6920   44.0610   37.5550 N.pl3 154  ARG154      0.1354
     22  NH2       19.5570   43.0530   38.4020 N.pl3 154  ARG154      0.1354
     23  N         16.9780   39.3640   36.4040 N.3   200  GLY200     -0.1210
     24  CA        16.5840   40.6990   36.8160 C.3   200  GLY200      0.1956
     25  C         15.5480   41.3560   35.9120 C.2   200  GLY200      0.2611
     26  O         15.4930   41.1630   34.6530 O.2   200  GLY200     -0.2717
     27  N         14.6980   42.1880   36.5370 N.am  201  ASN201     -0.1974
     28  CA        13.7380   42.9490   35.7540 C.3   201  ASN201      0.1688
     29  C         14.4100   44.1130   35.0350 C.2   201  ASN201      0.2292
     30  O         15.4450   44.6360   35.4730 O.2   201  ASN201     -0.2864
     31  CB        12.5410   43.4140   36.6400 C.3   201  ASN201      0.1181
     32  CG        12.8170   44.7420   37.3540 C.2   201  ASN201      0.2629
     33  OD1       12.7990   45.7660   36.7340 O.2   201  ASN201     -0.2716
     34  ND2       13.0360   44.7040   38.6650 N.am  201  ASN201     -0.0877
     35  N         12.3690   46.8680   33.8820 N.3   203  LEU203     -0.1245
     36  CA        11.3610   47.9460   33.8290 C.3   203  LEU203      0.1561
     37  C         11.9350   49.3410   33.9870 C.2   203  LEU203      0.2260
     38  O         13.0150   49.5360   34.5700 O.2   203  LEU203     -0.2867
     39  CB        10.3260   47.7940   34.9470 C.3   203  LEU203      0.0270
     40  CG         9.5380   46.4890   34.9230 C.3   203  LEU203      0.0019
     41  CD1        8.5270   46.3790   36.0650 C.3   203  LEU203      0.0001
     42  CD2        8.7610   46.3870   33.7170 C.3   203  LEU203      0.0001
     43  N         12.3860   42.8050   51.7350 N.3   317  HIS317     -0.1241
     44  CA        11.7250   41.7740   50.9090 C.3   317  HIS317      0.1621
     45  C         12.1190   40.3180   51.2220 C.2   317  HIS317      0.2264
     46  O         13.1230   40.0420   51.8360 O.2   317  HIS317     -0.2867
     47  CB        11.8750   42.0420   49.4140 C.3   317  HIS317      0.0745
     48  CG        13.2060   41.7090   48.7730 C.ar  317  HIS317      0.0817
     49  ND1       13.2830   40.8340   47.7270 N.ar  317  HIS317     -0.2268
     50  CD2       14.4570   42.2260   48.8940 C.ar  317  HIS317      0.1154
     51  CE1       14.4930   40.8490   47.1910 C.ar  317  HIS317      0.1986
     52  NE2       15.2340   41.6910   47.8700 N.ar  317  HIS317     -0.2212
     53  N         20.7340   37.8160   48.6740 N.3   327  ASP327     -0.1239
     54  CA        19.6980   38.7350   48.2610 C.3   327  ASP327      0.1674
     55  C         18.3830   38.0270   48.1060 C.2   327  ASP327      0.2266
     56  O         18.1660   37.4400   47.0620 O.2   327  ASP327     -0.2867
     57  CB        20.1210   39.4100   46.9620 C.3   327  ASP327      0.1410
     58  CG        19.0650   40.4070   46.4590 C.2   327  ASP327      0.3668
     59  OD1       18.3440   40.9390   47.2920 O.co2 327  ASP327     -0.2456
     60  OD2       18.8840   40.7130   45.2810 O.co2 327  ASP327     -0.2456
     61  N          9.5180   42.3830   45.3550 N.3   364  GLU364     -0.1231
     62  CA        10.5150   43.4490   45.2660 C.3   364  GLU364      0.1699
     63  C         11.3250   43.2690   43.9870 C.2   364  GLU364      0.2592
     64  O         11.5860   44.2460   43.2630 O.2   364  GLU364     -0.2718
     65  CB        11.4170   43.5100   46.4980 C.3   364  GLU364      0.0402
     66  CG        12.4290   44.6780   46.5050 C.3   364  GLU364      0.1161
     67  CD        13.8190   44.2940   46.0700 C.2   364  GLU364      0.3649
     68  OE1       14.0010   43.3000   45.3440 O.co2 364  GLU364     -0.2457
     69  OE2       14.7430   44.9730   46.5040 O.co2 364  GLU364     -0.2457
     70  N         11.6480   42.0180   43.6670 N.am  365  GLU365     -0.1979
     71  CA        12.4890   41.7360   42.5210 C.3   365  GLU365      0.1602
     72  C         11.9150   42.1420   41.1750 C.2   365  GLU365      0.2287
     73  O         12.6610   42.3740   40.1970 O.2   365  GLU365     -0.2864
     74  CB        12.9950   40.2850   42.5140 C.3   365  GLU365      0.0415
     75  CG        13.9550   39.9720   43.6560 C.3   365  GLU365      0.1163
     76  CD        15.3510   40.5810   43.5930 C.2   365  GLU365      0.3649
     77  OE1       15.6910   41.3390   42.6940 O.co2 365  GLU365     -0.2457
     78  OE2       16.1640   40.2970   44.4830 O.co2 365  GLU365     -0.2457
     79  N         10.0940   44.9250   40.7050 N.3   367  GLY367     -0.1210
     80  CA         9.9400   46.3510   40.6260 C.3   367  GLY367      0.1956
     81  C          9.3820   46.9880   41.9290 C.2   367  GLY367      0.2611
     82  O          8.6120   47.9470   41.8560 O.2   367  GLY367     -0.2717
     83  N          9.7360   46.4520   43.0740 N.am  368  LEU368     -0.1979
     84  CA         9.3870   47.0620   44.3530 C.3   368  LEU368      0.1596
     85  C          7.8430   47.1010   44.4630 C.2   368  LEU368      0.2287
     86  O          7.2810   48.0200   45.0610 O.2   368  LEU368     -0.2864
     87  CB         9.9650   48.4750   44.5060 C.3   368  LEU368      0.0297
     88  CG        11.3890   48.7890   43.9690 C.3   368  LEU368      0.0022
     89  CD1       11.7220   50.2010   44.0950 C.3   368  LEU368      0.0001
     90  CD2       12.3530   47.9280   44.6420 C.3   368  LEU368      0.0001
     91  N         17.1110   44.7990   53.3550 N.3   393  ASP393     -0.1225
     92  CA        17.4730   43.7970   52.3620 C.3   393  ASP393      0.1805
     93  C         18.8160   43.1540   52.8250 C.2   393  ASP393      0.2598
     94  O         19.1610   43.2750   54.0030 O.2   393  ASP393     -0.2718
     95  CB        17.5960   44.4490   51.0140 C.3   393  ASP393      0.1424
     96  CG        17.4590   43.4630   49.8450 C.2   393  ASP393      0.3668
     97  OD1       17.4340   42.2410   50.0370 O.co2 393  ASP393     -0.2456
     98  OD2       17.4420   43.8510   48.6780 O.co2 393  ASP393     -0.2456
     99  N         19.5910   42.5550   51.9150 N.am  394  SER394     -0.1952
    100  CA        20.8840   41.9050   52.2800 C.3   394  SER394      0.1924
    101  C         21.7570   42.6380   53.3150 C.2   394  SER394      0.2314
    102  O         22.1030   43.8060   53.1620 O.2   394  SER394     -0.2863
    103  CB        21.7890   41.6450   51.0990 C.3   394  SER394      0.2116
    104  OG        21.0500   41.3280   49.9540 O.3   394  SER394     -0.2180
    105  N         24.8390   41.7300   53.7900 N.3   396  ILE396     -0.1231
    106  CA        26.2190   41.6970   53.3230 C.3   396  ILE396      0.1692
    107  C         26.3660   41.8540   51.8270 C.2   396  ILE396      0.2591
    108  O         25.6260   41.3240   51.0710 O.2   396  ILE396     -0.2718
    109  CB        26.8910   40.3360   53.7000 C.3   396  ILE396      0.0266
    110  CG1       25.9400   39.1860   53.4730 C.3   396  ILE396      0.0019
    111  CG2       27.2970   40.2930   55.1240 C.3   396  ILE396      0.0020
    112  CD1       26.6300   37.8820   53.4040 C.3   396  ILE396      0.0001
    113  N         27.3770   42.5480   51.3870 N.am  397  GLU397     -0.1979
    114  CA        27.7440   42.4920   49.9810 C.3   397  GLU397      0.1602
    115  C         29.2320   42.1290   49.9000 C.2   397  GLU397      0.2287
    116  O         29.8100   42.1080   48.8270 O.2   397  GLU397     -0.2864
    117  CB        27.5300   43.8630   49.3220 C.3   397  GLU397      0.0415
    118  CG        27.9800   43.9200   47.8470 C.3   397  GLU397      0.1163
    119  CD        27.4520   45.1390   47.1310 C.2   397  GLU397      0.3649
    120  OE1       27.1570   46.1550   47.8950 O.co2 397  GLU397     -0.2457
    121  OE2       27.2850   45.1570   45.9360 O.co2 397  GLU397     -0.2457
    122  N         16.0910   51.3610   43.7320 N.3   458  GLY458     -0.1210
    123  CA        16.4450   49.9490   43.6270 C.3   458  GLY458      0.1956
    124  C         16.2040   49.1300   44.8740 C.2   458  GLY458      0.2611
    125  O         16.7330   48.0370   45.0230 O.2   458  GLY458     -0.2717
    126  N         15.4150   49.6630   45.8020 N.am  459  ASN459     -0.1974
    127  CA        15.0020   48.9370   46.9660 C.3   459  ASN459      0.1688
    128  C         13.7350   49.5170   47.6160 C.2   459  ASN459      0.2292
    129  O         13.2300   50.5560   47.1990 O.2   459  ASN459     -0.2864
    130  CB        16.1060   48.7960   47.9860 C.3   459  ASN459      0.1181
    131  CG        16.2230   47.3800   48.4610 C.2   459  ASN459      0.2629
    132  OD1       15.3140   46.8490   49.1310 O.2   459  ASN459     -0.2716
    133  ND2       17.3460   46.7240   48.1110 N.am  459  ASN459     -0.0877
    134  N         19.2430   52.9250   55.5890 N.3   474  ARG474     -0.1245
    135  CA        19.6290   51.5340   55.3990 C.3   474  ARG474      0.1563
    136  C         21.1130   51.3750   55.7610 C.2   474  ARG474      0.2260
    137  O         21.8920   52.3100   55.6490 O.2   474  ARG474     -0.2867
    138  CB        19.4640   51.0630   53.9360 C.3   474  ARG474      0.0307
    139  CG        20.1830   51.8990   52.9480 C.3   474  ARG474      0.0489
    140  CD        21.2360   51.2500   52.0680 C.3   474  ARG474      0.2205
    141  NE        20.7050   50.0720   51.4160 N.pl3 474  ARG474     -0.0865
    142  CZ        20.4880   49.9010   50.1270 C.cat 474  ARG474      0.5346
    143  NH1       20.8170   50.8070   49.2190 N.pl3 474  ARG474      0.1354
    144  NH2       19.9960   48.7580   49.7490 N.pl3 474  ARG474      0.1354
    145  N         24.3390   48.0310   55.6550 N.3   476  ARG476     -0.1245
    146  CA        24.8220   46.6690   55.3840 C.3   476  ARG476      0.1563
    147  C         26.3750   46.6480   55.3810 C.2   476  ARG476      0.2260
    148  O         27.0250   47.6880   55.2590 O.2   476  ARG476     -0.2867
    149  CB        24.2990   46.1970   54.0060 C.3   476  ARG476      0.0307
    150  CG        24.9410   46.9080   52.8210 C.3   476  ARG476      0.0489
    151  CD        24.7900   46.1220   51.5460 C.3   476  ARG476      0.2205
    152  NE        25.2660   46.8150   50.3560 N.pl3 476  ARG476     -0.0865
    153  CZ        24.4750   47.3350   49.4080 C.cat 476  ARG476      0.5346
    154  NH1       23.1230   47.2800   49.5260 N.pl3 476  ARG476      0.1354
    155  NH2       25.0340   47.9430   48.3500 N.pl3 476  ARG476      0.1354
    156  N         28.9350   44.1630   41.8860 N.3   482  GLY482     -0.1210
    157  CA        28.2950   44.2230   43.1930 C.3   482  GLY482      0.1956
    158  C         28.9420   43.1160   44.0040 C.2   482  GLY482      0.2611
    159  O         29.9740   43.3290   44.6260 O.2   482  GLY482     -0.2717
    160  N         28.3340   41.9350   43.9780 N.am  483  TYR483     -0.1976
    161  CA        29.0660   40.7210   44.2750 C.3   483  TYR483      0.1639
    162  C         28.9070   39.7670   43.0500 C.2   483  TYR483      0.2290
    163  O         27.9730   39.9110   42.2870 O.2   483  TYR483     -0.2864
    164  CB        28.6510   40.1110   45.5910 C.3   483  TYR483      0.0560
    165  CG        27.1930   39.8130   45.7000 C.ar  483  TYR483     -0.0198
    166  CD1       26.7180   38.5390   45.4680 C.ar  483  TYR483     -0.0009
    167  CD2       26.2570   40.8380   45.9930 C.ar  483  TYR483     -0.0009
    168  CE1       25.3670   38.2750   45.5490 C.ar  483  TYR483      0.0417
    169  CE2       24.9120   40.5640   46.0780 C.ar  483  TYR483      0.0417
    170  CZ        24.4700   39.3000   45.8270 C.ar  483  TYR483      0.1957
    171  OH        23.1490   39.0010   45.9120 O.3   483  TYR483     -0.2866
    172  N         25.5460   37.4790   42.2060 N.3   486  TYR486     -0.1227
    173  CA        24.2460   38.1750   42.2920 C.3   486  TYR486      0.1736
    174  C         23.2030   37.6540   41.3380 C.2   486  TYR486      0.2595
    175  O         23.3810   37.6920   40.1280 O.2   486  TYR486     -0.2718
    176  CB        24.5560   39.6530   42.0290 C.3   486  TYR486      0.0548
    177  CG        23.3870   40.6040   41.9630 C.ar  486  TYR486     -0.0200
    178  CD1       22.5650   40.8390   43.0490 C.ar  486  TYR486     -0.0009
    179  CD2       23.1620   41.3440   40.8000 C.ar  486  TYR486     -0.0009
    180  CE1       21.4890   41.8030   42.9250 C.ar  486  TYR486      0.0417
    181  CE2       22.1350   42.2680   40.6750 C.ar  486  TYR486      0.0417
    182  CZ        21.2940   42.4960   41.7450 C.ar  486  TYR486      0.1957
    183  OH        20.2820   43.4360   41.5690 O.3   486  TYR486     -0.2866
    184  N         22.0890   37.1970   41.8770 N.am  487  HIS487     -0.1975
    185  CA        20.9280   36.7370   41.1070 C.3   487  HIS487      0.1656
    186  C         21.1840   35.4700   40.2540 C.2   487  HIS487      0.2291
    187  O         20.5000   35.2230   39.2870 O.2   487  HIS487     -0.2864
    188  CB        20.4280   37.8250   40.1760 C.3   487  HIS487      0.0771
    189  CG        19.6440   38.9320   40.8450 C.ar  487  HIS487      0.0820
    190  ND1       19.1750   40.0090   40.1350 N.ar  487  HIS487     -0.2267
    191  CD2       19.3600   39.1940   42.1490 C.ar  487  HIS487      0.1154
    192  CE1       18.5650   40.8430   40.9530 C.ar  487  HIS487      0.1986
    193  NE2       18.6330   40.3580   42.1640 N.ar  487  HIS487     -0.2212
    194  N         19.0560   54.1460   38.1930 N.3   631  LYS631     -0.1231
    195  CA        18.0900   54.1110   39.2920 C.3   631  LYS631      0.1693
    196  C         18.7380   53.8350   40.6290 C.2   631  LYS631      0.2592
    197  O         18.2010   54.2570   41.6620 O.2   631  LYS631     -0.2718
    198  CB        17.0510   53.0380   38.9790 C.3   631  LYS631      0.0285
    199  CG        15.7940   53.0880   39.8030 C.3   631  LYS631      0.0035
    200  CD        14.8730   51.9220   39.4510 C.3   631  LYS631      0.0206
    201  CE        13.5620   52.0290   40.2080 C.3   631  LYS631      0.1093
    202  NZ        12.6410   50.8980   39.8640 N.3   631  LYS631     -0.1314
    203  N         19.8670   53.1030   40.6610 N.am  632  TYR632     -0.1976
    204  CA        20.5340   52.7990   41.9180 C.3   632  TYR632      0.1639
    205  C         21.1710   53.9910   42.6240 C.2   632  TYR632      0.2290
    206  O         21.3020   53.9660   43.8180 O.2   632  TYR632     -0.2864
    207  CB        21.6250   51.7580   41.7210 C.3   632  TYR632      0.0560
    208  CG        21.1980   50.3580   41.2340 C.ar  632  TYR632     -0.0198
    209  CD1       20.0910   49.7170   41.7740 C.ar  632  TYR632     -0.0009
    210  CD2       22.0120   49.6370   40.3430 C.ar  632  TYR632     -0.0009
    211  CE1       19.7470   48.4220   41.3980 C.ar  632  TYR632      0.0417
    212  CE2       21.7050   48.2910   39.9900 C.ar  632  TYR632      0.0417
    213  CZ        20.5550   47.7120   40.5250 C.ar  632  TYR632      0.1957
    214  OH        20.1740   46.4420   40.1450 O.3   632  TYR632     -0.2866
@<TRIPOS>BOND
     1    15    14    2
     2    14    13    1
     3    42    40    1
     4    36    35    1
     5    36    37    1
     6    36    39    1
     7    13    16    1
     8    13    12    1
     9    37    38    2
    10    16    17    1
    11     4     3    2
    12    26    25    2
    13    17    18    1
    14    40    39    1
    15    40    41    1
    16    18    19    1
    17    29    30    2
    18    29    28    1
    19    12     3   am
    20     3     2    1
    21    28    27    1
    22    28    31    1
    23    25    27   am
    24    25    24    1
    25    19    20    2
    26    23    24    1
    27    10     8   ar
    28    10    11   ar
    29     8     6   ar
    30    31    32    1
    31    33    32    2
    32     1     2    1
    33     2     5    1
    34    11     9   ar
    35     6     5    1
    36     6     7   ar
    37    32    34   am
    38    20    21    1
    39    20    22    1
    40     9     7   ar
    41   194   195    1
    42   198   195    1
    43   198   199    1
    44   187   186    2
    45   195   196    1
    46   200   199    1
    47   200   201    1
    48   202   201    1
    49   212   210   ar
    50   212   213   ar
    51   175   174    2
    52   190   189   ar
    53   190   192   ar
    54   214   213    1
    55   188   189    1
    56   188   185    1
    57    73    72    2
    58   186   185    1
    59   210   208   ar
    60   213   211   ar
    61    80    79    1
    62    80    81    1
    63   196   203   am
    64   196   197    2
    65   203   204    1
    66   181   179   ar
    67   181   182   ar
    68   179   177   ar
    69   189   191   ar
    70   192   193   ar
    71   185   184    1
    72    72    71    1
    73   208   207    1
    74   208   209   ar
    75   174   184   am
    76   174   173    1
    77   211   209   ar
    78   183   182    1
    79   207   204    1
    80   182   180   ar
    81    82    81    2
    82   156   157    1
    83   204   205    1
    84    81    83   am
    85   177   176    1
    86   177   178   ar
    87   176   173    1
    88   191   193   ar
    89   172   173    1
    90   163   162    2
    91    74    71    1
    92    74    75    1
    93    71    70    1
    94   205   206    2
    95    77    76   ar
    96   180   178   ar
    97   162   161    1
    98    83    84    1
    99   157   158    1
   100    64    63    2
   101    76    75    1
   102    76    78   ar
   103   123   122    1
   104   123   124    1
   105    70    63   am
   106    88    89    1
   107    88    87    1
   108    88    90    1
   109   160   158   am
   110   160   161    1
   111    63    62    1
   112   158   159    2
   113   161   164    1
   114    84    85    1
   115    84    87    1
   116    85    86    2
   117   124   125    2
   118   124   126   am
   119    62    61    1
   120    62    65    1
   121    60    58   ar
   122    68    67   ar
   123   166   168   ar
   124   166   165   ar
   125   168   170   ar
   126   164   165    1
   127   165   167   ar
   128   126   127    1
   129   170   171    1
   130   170   169   ar
   131   121   119   ar
   132   167   169   ar
   133    67    69   ar
   134    67    66    1
   135    58    57    1
   136    58    59   ar
   137    65    66    1
   138    57    54    1
   139   127   128    1
   140   127   130    1
   141    56    55    2
   142   119   118    1
   143   119   120   ar
   144    51    49   ar
   145    51    52   ar
   146   129   128    2
   147    49    48   ar
   148   118   117    1
   149    52    50   ar
   150   130   131    1
   151    55    54    1
   152   133   131   am
   153    54    53    1
   154   155   153    1
   155   131   132    2
   156    98    96   ar
   157    48    50   ar
   158    48    47    1
   159   116   115    2
   160   143   142    1
   161   117   114    1
   162   153   154    1
   163   153   152    2
   164    47    44    1
   165   144   142    1
   166    96    97   ar
   167    96    95    1
   168   115   114    1
   169   104   103    1
   170   114   113    1
   171   142   141    2
   172   152   151    1
   173    44    45    1
   174    44    43    1
   175    95    92    1
   176   108   107    2
   177   103   100    1
   178    45    46    2
   179   113   107   am
   180   141   140    1
   181   151   150    1
   182   107   106    1
   183    99   100    1
   184    99    93   am
   185   140   139    1
   186   100   101    1
   187    92    93    1
   188    92    91    1
   189   150   149    1
   190    93    94    2
   191   139   138    1
   192   102   101    2
   193   106   109    1
   194   106   105    1
   195   112   110    1
   196   110   109    1
   197   109   111    1
   198   138   135    1
   199   149   146    1
   200   148   147    2
   201   147   146    1
   202   146   145    1
   203   135   134    1
   204   135   136    1
   205   137   136    2
