@<TRIPOS>MOLECULE
tmp/2c6eA00.pdb
 218 207 0 0 0
SMALL
GASTEIGER

@<TRIPOS>ATOM
      1  N         31.8670   88.2120   78.3910 N.3    11  ARG11      -0.1245
      2  CA        31.8520   87.0770   77.4640 C.3    11  ARG11       0.1563
      3  C         31.2850   87.3690   76.0840 C.2    11  ARG11       0.2260
      4  O         30.4500   88.2600   75.9160 O.2    11  ARG11      -0.2867
      5  CB        31.0780   85.9020   78.0640 C.3    11  ARG11       0.0307
      6  CG        29.6010   86.1740   78.2840 C.3    11  ARG11       0.0489
      7  CD        28.8700   84.9140   78.7250 C.3    11  ARG11       0.2205
      8  NE        27.4970   85.2010   79.1210 N.pl3  11  ARG11      -0.0865
      9  CZ        26.4170   84.6870   78.5320 C.cat  11  ARG11       0.5346
     10  NH1       26.5460   83.8470   77.5120 N.pl3  11  ARG11       0.1354
     11  NH2       25.2040   85.0280   78.9580 N.pl3  11  ARG11       0.1354
     12  N         28.9950   87.0180   72.9240 N.3    13  LEU13      -0.1231
     13  CA        27.6020   86.6150   72.7790 C.3    13  LEU13       0.1693
     14  C         27.4030   85.9070   71.4380 C.2    13  LEU13       0.2592
     15  O         26.6190   84.9640   71.3290 O.2    13  LEU13      -0.2718
     16  CB        26.6910   87.8430   72.8650 C.3    13  LEU13       0.0284
     17  CG        26.4500   88.4730   74.2400 C.3    13  LEU13       0.0019
     18  CD1       27.7580   88.6360   74.9650 C.3    13  LEU13       0.0001
     19  CD2       25.7710   89.8160   74.0750 C.3    13  LEU13       0.0001
     20  N         28.1240   86.3670   70.4240 N.am   14  GLY14      -0.1957
     21  CA        28.0140   85.7730   69.1090 C.3    14  GLY14       0.1869
     22  C         29.1360   86.2150   68.1900 C.2    14  GLY14       0.2309
     23  O         29.8590   87.1660   68.4880 O.2    14  GLY14      -0.2863
     24  N         30.2140   90.3370   69.1070 N.3    21  VAL21      -0.1245
     25  CA        29.3260   91.0510   70.0130 C.3    21  VAL21       0.1561
     26  C         29.6050   90.5460   71.4240 C.2    21  VAL21       0.2260
     27  O         29.5990   89.3410   71.6600 O.2    21  VAL21      -0.2867
     28  CB        27.8360   90.7690   69.6840 C.3    21  VAL21       0.0252
     29  CG1       26.9320   91.6440   70.5480 C.3    21  VAL21       0.0019
     30  CG2       27.5730   91.0060   68.2110 C.3    21  VAL21       0.0019
     31  N         25.0770   95.6540   75.3790 N.3    34  ALA34      -0.1245
     32  CA        25.7900   94.8030   74.4310 C.3    34  ALA34       0.1562
     33  C         26.6730   95.6720   73.5530 C.2    34  ALA34       0.2260
     34  O         26.2740   96.7660   73.1430 O.2    34  ALA34      -0.2867
     35  CB        24.8090   94.0090   73.5790 C.3    34  ALA34       0.0290
     36  N         29.1700   95.7380   70.0670 N.3    36  LYS36      -0.1245
     37  CA        29.6120   95.0820   68.8400 C.3    36  LYS36       0.1561
     38  C         30.8500   95.7980   68.3140 C.2    36  LYS36       0.2260
     39  O         30.8500   97.0140   68.1460 O.2    36  LYS36      -0.2867
     40  CB        28.5020   95.1070   67.7920 C.3    36  LYS36       0.0271
     41  CG        28.7350   94.1540   66.6350 C.3    36  LYS36       0.0035
     42  CD        27.4310   93.8910   65.8870 C.3    36  LYS36       0.0206
     43  CE        27.6120   92.8630   64.7920 C.3    36  LYS36       0.1093
     44  NZ        26.2930   92.3770   64.3150 N.3    36  LYS36      -0.1314
     45  N         26.8870  100.5590   56.4080 N.3    52  LEU52      -0.1245
     46  CA        26.8420  100.4950   57.8620 C.3    52  LEU52       0.1561
     47  C         26.3570  101.8420   58.3800 C.2    52  LEU52       0.2260
     48  O         25.4110  101.9200   59.1680 O.2    52  LEU52      -0.2867
     49  CB        28.2360  100.2300   58.4270 C.3    52  LEU52       0.0270
     50  CG        28.3070  100.1870   59.9570 C.3    52  LEU52       0.0019
     51  CD1       27.7730   98.8440   60.4390 C.3    52  LEU52       0.0001
     52  CD2       29.7420  100.3800   60.4310 C.3    52  LEU52       0.0001
     53  N         22.6890  102.6280   57.7950 N.3    55  GLU55      -0.1231
     54  CA        21.9240  101.7460   58.6550 C.3    55  GLU55       0.1699
     55  C         21.9620  102.2060   60.1100 C.2    55  GLU55       0.2592
     56  O         20.9650  102.1160   60.8310 O.2    55  GLU55      -0.2718
     57  CB        22.4750  100.3290   58.5120 C.3    55  GLU55       0.0402
     58  CG        21.5070   99.2390   58.9000 C.3    55  GLU55       0.1161
     59  CD        20.2380   99.2560   58.0730 C.2    55  GLU55       0.3649
     60  OE1       20.3360   99.2830   56.8300 O.co2  55  GLU55      -0.2457
     61  OE2       19.1380   99.2330   58.6690 O.co2  55  GLU55      -0.2457
     62  N         23.1090  102.7150   60.5410 N.am   56  VAL56      -0.1980
     63  CA        23.2350  103.1910   61.9050 C.3    56  VAL56       0.1595
     64  C         22.4030  104.4590   62.1000 C.2    56  VAL56       0.2287
     65  O         21.7710  104.6530   63.1440 O.2    56  VAL56      -0.2864
     66  CB        24.7090  103.4690   62.2440 C.3    56  VAL56       0.0276
     67  CG1       24.8060  104.3140   63.4990 C.3    56  VAL56       0.0022
     68  CG2       25.4400  102.1420   62.4400 C.3    56  VAL56       0.0022
     69  N         18.6680  103.2610   62.1680 N.3    59  GLN59      -0.1245
     70  CA        18.3490  102.5190   63.3730 C.3    59  GLN59       0.1566
     71  C         18.3350  103.3180   64.6790 C.2    59  GLN59       0.2260
     72  O         17.5930  102.9880   65.6060 O.2    59  GLN59      -0.2867
     73  CB        19.3150  101.3450   63.4950 C.3    59  GLN59       0.0367
     74  CG        18.8010  100.2350   64.3690 C.3    59  GLN59       0.0905
     75  CD        17.7210   99.4030   63.7090 C.2    59  GLN59       0.2608
     76  OE1       16.9880   98.6950   64.3880 O.2    59  GLN59      -0.2717
     77  NE2       17.6280   99.4700   62.3860 N.am   59  GLN59      -0.0878
     78  N         14.9570   96.4410   69.0750 N.3    68  LEU68      -0.1245
     79  CA        16.1880   96.5880   69.8600 C.3    68  LEU68       0.1561
     80  C         16.7990   97.9850   69.6930 C.2    68  LEU68       0.2260
     81  O         17.0200   98.4550   68.5780 O.2    68  LEU68      -0.2867
     82  CB        17.2140   95.5140   69.4670 C.3    68  LEU68       0.0270
     83  CG        18.2340   95.1450   70.5580 C.3    68  LEU68       0.0019
     84  CD1       17.5600   94.2480   71.6010 C.3    68  LEU68       0.0001
     85  CD2       19.4310   94.4240   69.9420 C.3    68  LEU68       0.0001
     86  N         19.4930  101.0350   69.6730 N.3    70  LEU70      -0.1245
     87  CA        20.8870  101.3110   69.3550 C.3    70  LEU70       0.1561
     88  C         21.1160  102.5730   70.1960 C.2    70  LEU70       0.2260
     89  O         20.5990  103.6330   69.8620 O.2    70  LEU70      -0.2867
     90  CB        21.0560  101.6500   67.8690 C.3    70  LEU70       0.0270
     91  CG        22.4000  101.3690   67.1800 C.3    70  LEU70       0.0019
     92  CD1       22.5130  102.2590   65.9480 C.3    70  LEU70       0.0001
     93  CD2       23.5700  101.6360   68.1110 C.3    70  LEU70       0.0001
     94  N         29.3850   99.6590   68.1790 N.3    82  LEU82      -0.1245
     95  CA        27.9430   99.8830   68.2900 C.3    82  LEU82       0.1561
     96  C         27.4950   99.5420   69.7120 C.2    82  LEU82       0.2260
     97  O         27.7600   98.4430   70.2040 O.2    82  LEU82      -0.2867
     98  CB        27.1830   99.0010   67.2880 C.3    82  LEU82       0.0270
     99  CG        27.5740   99.1600   65.8140 C.3    82  LEU82       0.0019
    100  CD1       26.6750   98.3090   64.9500 C.3    82  LEU82       0.0001
    101  CD2       27.4620  100.6240   65.4120 C.3    82  LEU82       0.0001
    102  N         24.5540   98.6390   71.9630 N.3    84  LEU84      -0.1231
    103  CA        23.2000   98.1000   71.8680 C.3    84  LEU84       0.1693
    104  C         22.5190   97.6680   73.1600 C.2    84  LEU84       0.2592
    105  O         23.1690   97.3220   74.1490 O.2    84  LEU84      -0.2718
    106  CB        23.2160   96.8930   70.9410 C.3    84  LEU84       0.0284
    107  CG        23.8710   97.0220   69.5640 C.3    84  LEU84       0.0019
    108  CD1       24.3810   95.6470   69.1170 C.3    84  LEU84       0.0001
    109  CD2       22.8770   97.5870   68.5710 C.3    84  LEU84       0.0001
    110  N         21.1900   97.6820   73.1240 N.am   85  GLU85      -0.1966
    111  CA        20.3730   97.2350   74.2400 C.3    85  GLU85       0.1733
    112  C         20.6250   95.7240   74.3690 C.2    85  GLU85       0.2616
    113  O         20.7220   95.0180   73.3670 O.2    85  GLU85      -0.2715
    114  CB        18.8920   97.4900   73.9220 C.3    85  GLU85       0.0429
    115  CG        17.9150   97.0050   74.9710 C.3    85  GLU85       0.1163
    116  CD        16.4660   97.0560   74.4930 C.2    85  GLU85       0.3649
    117  OE1       15.5790   96.6720   75.2750 O.co2  85  GLU85      -0.2457
    118  OE2       16.2100   97.4700   73.3380 O.co2  85  GLU85      -0.2457
    119  N         20.7370   95.2300   75.5960 N.am   86  TYR86      -0.1960
    120  CA        20.9920   93.8110   75.8170 C.3    86  TYR86       0.1771
    121  C         19.7040   93.0110   75.9960 C.2    86  TYR86       0.2619
    122  O         18.7910   93.4440   76.6940 O.2    86  TYR86      -0.2715
    123  CB        21.8890   93.6440   77.0450 C.3    86  TYR86       0.0574
    124  CG        22.1500   92.2160   77.4740 C.ar   86  TYR86      -0.0198
    125  CD1       22.8980   91.3470   76.6810 C.ar   86  TYR86      -0.0009
    126  CD2       21.6710   91.7430   78.6960 C.ar   86  TYR86      -0.0009
    127  CE1       23.1600   90.0360   77.1030 C.ar   86  TYR86       0.0417
    128  CE2       21.9280   90.4430   79.1240 C.ar   86  TYR86       0.0417
    129  CZ        22.6660   89.5980   78.3280 C.ar   86  TYR86       0.1957
    130  OH        22.9020   88.3140   78.7570 O.3    86  TYR86      -0.2866
    131  N         19.6420   91.8450   75.3530 N.am   87  ALA87      -0.1964
    132  CA        18.4770   90.9520   75.4390 C.3    87  ALA87       0.1713
    133  C         18.8730   89.7550   76.3250 C.2    87  ALA87       0.2458
    134  O         19.5510   88.8370   75.8720 O.2    87  ALA87      -0.2730
    135  CB        18.0900   90.4850   74.0400 C.3    87  ALA87       0.0333
    136  N         18.4440   89.7570   77.6020 N.am   88  PRO88      -0.2716
    137  CA        18.7270   88.7260   78.6090 C.3    88  PRO88       0.1536
    138  C         18.3180   87.2950   78.3200 C.2    88  PRO88       0.2598
    139  O         19.0190   86.3600   78.7030 O.2    88  PRO88      -0.2715
    140  CB        18.0260   89.2580   79.8650 C.3    88  PRO88       0.0310
    141  CG        17.9760   90.7130   79.6510 C.3    88  PRO88       0.0237
    142  CD        17.6000   90.8060   78.1900 C.3    88  PRO88       0.0939
    143  N         17.1840   87.1110   77.6560 N.am   89  LEU89      -0.1964
    144  CA        16.7150   85.7650   77.3750 C.3    89  LEU89       0.1728
    145  C         17.1890   85.1170   76.0750 C.2    89  LEU89       0.2617
    146  O         16.8460   83.9750   75.8050 O.2    89  LEU89      -0.2715
    147  CB        15.1810   85.7160   77.4990 C.3    89  LEU89       0.0311
    148  CG        14.6800   85.6110   78.9500 C.3    89  LEU89       0.0022
    149  CD1       15.2490   86.7520   79.7690 C.3    89  LEU89       0.0001
    150  CD2       13.1600   85.6330   79.0010 C.3    89  LEU89       0.0001
    151  N         17.9860   85.8230   75.2760 N.am   90  GLY90      -0.1940
    152  CA        18.5030   85.2270   74.0470 C.3    90  GLY90       0.2014
    153  C         17.6110   85.1900   72.8130 C.2    90  GLY90       0.2639
    154  O         16.6790   85.9760   72.6960 O.2    90  GLY90      -0.2714
    155  N         17.8920   84.2730   71.8890 N.am   91  THR91      -0.1950
    156  CA        17.1120   84.1720   70.6520 C.3    91  THR91       0.1897
    157  C         15.8510   83.3140   70.7200 C.2    91  THR91       0.2313
    158  O         15.7500   82.3820   71.5130 O.2    91  THR91      -0.2863
    159  CB        17.9600   83.6260   69.4870 C.3    91  THR91       0.1794
    160  OG1       18.2330   82.2380   69.7060 O.3    91  THR91      -0.2208
    161  CG2       19.2700   84.3970   69.3690 C.3    91  THR91       0.0378
    162  N         16.5340   79.6750   69.6680 N.3    94  ARG94      -0.1245
    163  CA        17.0110   78.7780   70.7020 C.3    94  ARG94       0.1563
    164  C         15.8550   78.2670   71.5560 C.2    94  ARG94       0.2260
    165  O         15.8290   77.1010   71.9410 O.2    94  ARG94      -0.2867
    166  CB        18.0470   79.5020   71.5550 C.3    94  ARG94       0.0307
    167  CG        18.6600   78.6570   72.6340 C.3    94  ARG94       0.0489
    168  CD        19.7230   79.4430   73.3740 C.3    94  ARG94       0.2205
    169  NE        20.2550   78.6830   74.5010 N.pl3  94  ARG94      -0.0865
    170  CZ        21.2500   79.0970   75.2760 C.cat  94  ARG94       0.5346
    171  NH1       21.8260   80.2730   75.0410 N.pl3  94  ARG94       0.1354
    172  NH2       21.6580   78.3380   76.2890 N.pl3  94  ARG94       0.1354
    173  N         15.1820   88.5240   69.1260 N.3   137  LEU137     -0.1245
    174  CA        15.6700   88.3700   70.4990 C.3   137  LEU137      0.1561
    175  C         14.5560   88.5380   71.5430 C.2   137  LEU137      0.2260
    176  O         13.4840   89.0540   71.2320 O.2   137  LEU137     -0.2867
    177  CB        16.8100   89.3760   70.7580 C.3   137  LEU137      0.0270
    178  CG        17.9550   89.3810   69.7230 C.3   137  LEU137      0.0019
    179  CD1       18.9550   90.4990   70.0350 C.3   137  LEU137      0.0001
    180  CD2       18.6720   88.0330   69.7230 C.3   137  LEU137      0.0001
    181  N         15.9450   92.8050   65.8220 N.3   147  ALA147     -0.1231
    182  CA        17.3180   93.2910   65.6750 C.3   147  ALA147      0.1694
    183  C         17.6710   93.4770   64.1990 C.2   147  ALA147      0.2592
    184  O         16.9670   92.9850   63.3350 O.2   147  ALA147     -0.2718
    185  CB        18.2780   92.3070   66.3190 C.3   147  ALA147      0.0304
    186  N         18.7700   94.1660   63.9140 N.am  148  ASP148     -0.1960
    187  CA        19.1790   94.4230   62.5350 C.3   148  ASP148      0.1840
    188  C         20.4090   93.6080   62.1140 C.2   148  ASP148      0.2622
    189  O         21.5130   94.1340   62.0360 O.2   148  ASP148     -0.2715
    190  CB        19.4700   95.9190   62.3710 C.3   148  ASP148      0.1450
    191  CG        19.4810   96.3640   60.9220 C.2   148  ASP148      0.3671
    192  OD1       19.9210   97.5030   60.6620 O.co2 148  ASP148     -0.2456
    193  OD2       19.0420   95.5870   60.0480 O.co2 148  ASP148     -0.2456
    194  N         20.2120   92.3250   61.8250 N.am  149  PHE149     -0.1974
    195  CA        21.3090   91.4450   61.4100 C.3   149  PHE149      0.1639
    196  C         21.6100   91.4650   59.9080 C.2   149  PHE149      0.2290
    197  O         22.7690   91.3570   59.5080 O.2   149  PHE149     -0.2864
    198  CB        21.0140   90.0050   61.8260 C.3   149  PHE149      0.0560
    199  CG        21.1260   89.7620   63.2980 C.ar  149  PHE149     -0.0200
    200  CD1       22.3690   89.5930   63.8910 C.ar  149  PHE149     -0.0042
    201  CD2       19.9860   89.6900   64.0910 C.ar  149  PHE149     -0.0042
    202  CE1       22.4780   89.3520   65.2550 C.ar  149  PHE149     -0.0003
    203  CE2       20.0750   89.4490   65.4580 C.ar  149  PHE149     -0.0003
    204  CZ        21.3150   89.2790   66.0430 C.ar  149  PHE149     -0.0000
    205  N         21.8940   93.8010   57.8500 N.3   151  TRP151     -0.1241
    206  CA        22.1800   95.1780   57.4540 C.3   151  TRP151      0.1605
    207  C         23.1520   95.2440   56.2890 C.2   151  TRP151      0.2264
    208  O         23.3340   96.3070   55.6860 O.2   151  TRP151     -0.2867
    209  CB        22.7670   95.9580   58.6330 C.3   151  TRP151      0.0550
    210  CG        24.0990   95.4350   59.0650 C.ar  151  TRP151      0.0003
    211  CD1       24.3440   94.4810   60.0140 C.ar  151  TRP151      0.0946
    212  CD2       25.3760   95.8010   58.5230 C.ar  151  TRP151      0.0152
    213  NE1       25.6920   94.2310   60.0920 N.ar  151  TRP151     -0.2442
    214  CE2       26.3500   95.0240   59.1900 C.ar  151  TRP151      0.0810
    215  CE3       25.7900   96.7070   57.5380 C.ar  151  TRP151      0.0012
    216  CZ2       27.7170   95.1250   58.9050 C.ar  151  TRP151      0.0191
    217  CZ3       27.1540   96.8090   57.2490 C.ar  151  TRP151      0.0001
    218  CH2       28.1010   96.0180   57.9340 C.ar  151  TRP151      0.0015
@<TRIPOS>BOND
     1   208   207    2
     2   207   206    1
     3    45    46    1
     4    60    59   ar
     5   217   215   ar
     6   217   218   ar
     7   206   205    1
     8   206   209    1
     9   215   212   ar
    10    53    54    1
    11    46    47    1
    12    46    49    1
    13   218   216   ar
    14    59    61   ar
    15    59    58    1
    16    47    48    2
    17    49    50    1
    18    57    54    1
    19    57    58    1
    20   212   210   ar
    21   212   214   ar
    22   209   210    1
    23    54    55    1
    24   216   214   ar
    25   210   211   ar
    26   214   213   ar
    27   197   196    2
    28   196   195    1
    29    50    52    1
    30    50    51    1
    31   211   213   ar
    32   193   191   ar
    33    55    62   am
    34    55    56    2
    35    62    63    1
    36   192   191   ar
    37   191   190    1
    38   195   194    1
    39   195   198    1
    40   194   188   am
    41   198   199    1
    42    63    64    1
    43    63    66    1
    44   189   188    2
    45    64    65    2
    46   188   187    1
    47    69    70    1
    48    66    68    1
    49    66    67    1
    50   190   187    1
    51    77    75   am
    52   187   186    1
    53   199   200   ar
    54   199   201   ar
    55   184   183    2
    56    70    73    1
    57    70    71    1
    58    73    74    1
    59    75    74    1
    60    75    76    2
    61   200   202   ar
    62   186   183   am
    63   201   203   ar
    64   183   182    1
    65    44    43    1
    66    71    72    2
    67    43    42    1
    68   100    99    1
    69   202   204   ar
    70   101    99    1
    71   203   204   ar
    72   182   181    1
    73   182   185    1
    74    99    98    1
    75    42    41    1
    76    92    91    1
    77    41    40    1
    78    91    90    1
    79    91    93    1
    80    98    95    1
    81    40    37    1
    82    90    87    1
    83    39    38    2
    84    94    95    1
    85    22    23    2
    86    22    21    1
    87    30    28    1
    88    95    96    1
    89    38    37    1
    90   109   107    1
    91    81    80    2
    92    37    36    1
    93    78    79    1
    94    24    25    1
    95    21    20    1
    96   108   107    1
    97   173   174    1
    98    87    86    1
    99    87    88    1
   100   161   159    1
   101    82    79    1
   102    82    83    1
   103   159   160    1
   104   159   156    1
   105   107   106    1
   106   162   163    1
   107    28    25    1
   108    28    29    1
   109    80    79    1
   110    96    97    2
   111   180   178    1
   112   178   179    1
   113   178   177    1
   114    89    88    2
   115    85    83    1
   116    25    26    1
   117    20    14   am
   118   174   177    1
   119   174   175    1
   120    83    84    1
   121   156   157    1
   122   156   155    1
   123   163   166    1
   124   163   164    1
   125   157   158    2
   126   106   103    1
   127   176   175    2
   128    15    14    2
   129    26    27    2
   130    14    13    1
   131   166   167    1
   132   164   165    2
   133   103   102    1
   134   103   104    1
   135   155   153   am
   136   167   168    1
   137   154   153    2
   138    13    16    1
   139    13    12    1
   140   153   152    1
   141    16    17    1
   142   110   104   am
   143   110   111    1
   144    34    33    2
   145   104   105    2
   146   118   116   ar
   147   113   112    2
   148   168   169    1
   149    33    32    1
   150    35    32    1
   151   114   111    1
   152   114   115    1
   153   135   132    1
   154   152   151    1
   155    19    17    1
   156    17    18    1
   157   111   112    1
   158   112   119   am
   159    32    31    1
   160   116   115    1
   161   116   117   ar
   162   169   170    2
   163   171   170    1
   164   170   172    1
   165   151   145   am
   166   131   132    1
   167   131   121   am
   168   132   133    1
   169   119   120    1
   170   146   145    2
   171   120   121    1
   172   120   123    1
   173   134   133    2
   174     4     3    2
   175   121   122    2
   176   145   144    1
   177     3     2    1
   178   133   136   am
   179   125   127   ar
   180   125   124   ar
   181   123   124    1
   182   127   129   ar
   183   144   147    1
   184   144   143    1
   185     2     5    1
   186     2     1    1
   187   124   126   ar
   188   147   148    1
   189    10     9    1
   190   136   142    1
   191   136   137    1
   192   143   138   am
   193     5     6    1
   194   142   141    1
   195     6     7    1
   196   138   137    1
   197   138   139    2
   198   129   130    1
   199   129   128   ar
   200     9    11    1
   201     9     8    2
   202   137   140    1
   203   126   128   ar
   204     7     8    1
   205   148   150    1
   206   148   149    1
   207   141   140    1
