@<TRIPOS>MOLECULE
tmp/2c6gA00.pdb
 131 126 0 0 0
SMALL
GASTEIGER

@<TRIPOS>ATOM
      1  N         21.7920   50.2400   36.3410 N.3   153  PHE153     -0.1227
      2  CA        20.6540   49.3510   36.3980 C.3   153  PHE153      0.1736
      3  C         20.2770   48.9210   34.9770 C.2   153  PHE153      0.2595
      4  O         20.1860   49.7630   34.0630 O.2   153  PHE153     -0.2718
      5  CB        19.4730   50.0730   37.0480 C.3   153  PHE153      0.0547
      6  CG        18.1620   49.3760   36.8830 C.ar  153  PHE153     -0.0202
      7  CD1       17.9310   48.1520   37.4720 C.ar  153  PHE153     -0.0042
      8  CD2       17.1300   49.9860   36.2350 C.ar  153  PHE153     -0.0042
      9  CE1       16.7200   47.5240   37.3130 C.ar  153  PHE153     -0.0003
     10  CE2       15.9240   49.3540   36.0770 C.ar  153  PHE153     -0.0003
     11  CZ        15.7320   48.1500   36.6130 C.ar  153  PHE153     -0.0000
     12  N         20.0270   47.6190   34.8250 N.am  154  ARG154     -0.1980
     13  CA        19.8450   46.9960   33.5060 C.3   154  ARG154      0.1597
     14  C         18.6330   47.5440   32.7850 C.2   154  ARG154      0.2287
     15  O         18.5750   47.5460   31.5630 O.2   154  ARG154     -0.2864
     16  CB        19.7340   45.4690   33.6730 C.3   154  ARG154      0.0334
     17  CG        18.4180   44.9740   34.3070 C.3   154  ARG154      0.0492
     18  CD        18.4030   43.4750   34.5680 C.3   154  ARG154      0.2205
     19  NE        19.1430   43.0110   35.7560 N.pl3 154  ARG154     -0.0865
     20  CZ        18.7800   43.2770   37.0150 C.cat 154  ARG154      0.5346
     21  NH1       17.7140   44.0260   37.2330 N.pl3 154  ARG154      0.1354
     22  NH2       19.4820   42.8200   38.0580 N.pl3 154  ARG154      0.1354
     23  N         14.7200   42.0810   36.2110 N.3   201  ASN201     -0.1240
     24  CA        13.7330   42.7380   35.3930 C.3   201  ASN201      0.1653
     25  C         14.3970   43.8880   34.6670 C.2   201  ASN201      0.2266
     26  O         15.3910   44.4400   35.1280 O.2   201  ASN201     -0.2867
     27  CB        12.5250   43.1980   36.2160 C.3   201  ASN201      0.1155
     28  CG        12.7740   44.5160   36.9870 C.2   201  ASN201      0.2627
     29  OD1       12.7560   45.5860   36.4110 O.2   201  ASN201     -0.2716
     30  ND2       13.0390   44.4110   38.2750 N.am  201  ASN201     -0.0877
     31  N         20.6880   37.5230   48.2750 N.3   325  ASP325     -0.1239
     32  CA        19.6180   38.3930   47.8410 C.3   325  ASP325      0.1674
     33  C         18.3070   37.6400   47.7210 C.2   325  ASP325      0.2266
     34  O         18.1740   36.9330   46.7410 O.2   325  ASP325     -0.2867
     35  CB        19.9790   39.0420   46.4890 C.3   325  ASP325      0.1410
     36  CG        18.9270   40.0370   46.0290 C.2   325  ASP325      0.3668
     37  OD1       18.0700   40.3550   46.8960 O.co2 325  ASP325     -0.2456
     38  OD2       18.8380   40.5440   44.8800 O.co2 325  ASP325     -0.2456
     39  N          9.6080   42.1380   44.8660 N.3   362  GLU362     -0.1231
     40  CA        10.6050   43.1920   44.7390 C.3   362  GLU362      0.1699
     41  C         11.3910   43.0080   43.4620 C.2   362  GLU362      0.2592
     42  O         11.7080   43.9920   42.7690 O.2   362  GLU362     -0.2718
     43  CB        11.5340   43.1670   45.9230 C.3   362  GLU362      0.0402
     44  CG        12.5420   44.3210   46.0380 C.3   362  GLU362      0.1161
     45  CD        13.8250   44.1440   45.2340 C.2   362  GLU362      0.3649
     46  OE1       14.1650   43.0110   44.8480 O.co2 362  GLU362     -0.2457
     47  OE2       14.4570   45.1920   44.8990 O.co2 362  GLU362     -0.2457
     48  N         11.7170   41.7550   43.1470 N.am  363  GLU363     -0.1979
     49  CA        12.5210   41.4440   41.9760 C.3   363  GLU363      0.1602
     50  C         11.8570   41.8610   40.6720 C.2   363  GLU363      0.2287
     51  O         12.5250   42.1320   39.6790 O.2   363  GLU363     -0.2864
     52  CB        12.9290   39.9670   41.9500 C.3   363  GLU363      0.0415
     53  CG        13.9100   39.4910   43.0380 C.3   363  GLU363      0.1163
     54  CD        15.2510   40.2020   43.0750 C.2   363  GLU363      0.3649
     55  OE1       15.4260   41.1300   42.2910 O.co2 363  GLU363     -0.2457
     56  OE2       16.1460   39.8620   43.9120 O.co2 363  GLU363     -0.2457
     57  N         10.0710   44.6340   40.1800 N.3   365  GLY365     -0.1210
     58  CA         9.8420   46.0550   40.1240 C.3   365  GLY365      0.1956
     59  C          9.3170   46.6920   41.4150 C.2   365  GLY365      0.2611
     60  O          8.5670   47.6450   41.3610 O.2   365  GLY365     -0.2717
     61  N          9.6900   46.1680   42.5510 N.am  366  LEU366     -0.1979
     62  CA         9.3380   46.7360   43.8220 C.3   366  LEU366      0.1596
     63  C          7.8160   46.7700   44.0110 C.2   366  LEU366      0.2287
     64  O          7.2940   47.7190   44.5790 O.2   366  LEU366     -0.2864
     65  CB         9.8720   48.1750   43.9060 C.3   366  LEU366      0.0297
     66  CG        11.2620   48.5310   43.3860 C.3   366  LEU366      0.0022
     67  CD1       11.5240   50.0020   43.6030 C.3   366  LEU366      0.0001
     68  CD2       12.2800   47.7240   44.0950 C.3   366  LEU366      0.0001
     69  N         17.0270   44.4760   52.7120 N.3   391  ASP391     -0.1239
     70  CA        17.4390   43.5320   51.7170 C.3   391  ASP391      0.1674
     71  C         18.7550   42.9000   52.1810 C.2   391  ASP391      0.2266
     72  O         19.0740   42.9340   53.3560 O.2   391  ASP391     -0.2867
     73  CB        17.6120   44.1840   50.3630 C.3   391  ASP391      0.1410
     74  CG        17.3850   43.2020   49.2370 C.2   391  ASP391      0.3668
     75  OD1       17.3170   42.0040   49.5070 O.co2 391  ASP391     -0.2456
     76  OD2       17.2440   43.5270   48.0860 O.co2 391  ASP391     -0.2456
     77  N         15.8620   51.2040   43.2020 N.3   456  GLY456     -0.1210
     78  CA        16.2250   49.8220   42.9650 C.3   456  GLY456      0.1956
     79  C         16.0110   48.9530   44.1690 C.2   456  GLY456      0.2611
     80  O         16.5240   47.8610   44.2460 O.2   456  GLY456     -0.2717
     81  N         15.2470   49.4370   45.1380 N.am  457  ASN457     -0.1974
     82  CA        14.8670   48.6070   46.2510 C.3   457  ASN457      0.1688
     83  C         13.6580   49.1790   46.9820 C.2   457  ASN457      0.2292
     84  O         13.1650   50.2370   46.6290 O.2   457  ASN457     -0.2864
     85  CB        16.0650   48.3360   47.1370 C.3   457  ASN457      0.1181
     86  CG        16.0800   46.9270   47.6760 C.2   457  ASN457      0.2629
     87  OD1       15.2310   46.5410   48.5310 O.2   457  ASN457     -0.2716
     88  ND2       17.0720   46.1380   47.2260 N.am  457  ASN457     -0.0877
     89  N         25.4820   37.4850   41.9020 N.3   483  TYR483     -0.1227
     90  CA        24.1930   38.1920   42.0100 C.3   483  TYR483      0.1736
     91  C         23.1590   37.7220   40.9920 C.2   483  TYR483      0.2595
     92  O         23.3830   37.7440   39.7830 O.2   483  TYR483     -0.2718
     93  CB        24.4840   39.6860   41.9270 C.3   483  TYR483      0.0548
     94  CG        23.3360   40.6160   41.7790 C.ar  483  TYR483     -0.0200
     95  CD1       22.4620   40.8650   42.8330 C.ar  483  TYR483     -0.0009
     96  CD2       23.1550   41.3010   40.5810 C.ar  483  TYR483     -0.0009
     97  CE1       21.4240   41.7940   42.6820 C.ar  483  TYR483      0.0417
     98  CE2       22.1560   42.2110   40.4120 C.ar  483  TYR483      0.0417
     99  CZ        21.2730   42.4380   41.4420 C.ar  483  TYR483      0.1957
    100  OH        20.2710   43.3150   41.2160 O.3   483  TYR483     -0.2866
    101  N         22.0280   37.2920   41.5070 N.am  484  HIS484     -0.1975
    102  CA        20.8480   36.9060   40.7070 C.3   484  HIS484      0.1656
    103  C         21.0750   35.6550   39.8440 C.2   484  HIS484      0.2291
    104  O         20.4220   35.4660   38.8310 O.2   484  HIS484     -0.2864
    105  CB        20.3610   38.0490   39.8150 C.3   484  HIS484      0.0771
    106  CG        19.5720   39.0930   40.5390 C.ar  484  HIS484      0.0820
    107  ND1       18.9520   40.1390   39.8820 N.ar  484  HIS484     -0.2267
    108  CD2       19.3410   39.2790   41.8580 C.ar  484  HIS484      0.1154
    109  CE1       18.3340   40.8860   40.7670 C.ar  484  HIS484      0.1986
    110  NE2       18.5460   40.3760   41.9650 N.ar  484  HIS484     -0.2212
    111  N         19.0110   54.0390   37.7280 N.3   628  LYS628     -0.1231
    112  CA        18.0540   53.8810   38.8410 C.3   628  LYS628      0.1693
    113  C         18.7140   53.6050   40.2030 C.2   628  LYS628      0.2592
    114  O         18.1580   53.9530   41.2140 O.2   628  LYS628     -0.2718
    115  CB        17.0380   52.7870   38.4900 C.3   628  LYS628      0.0285
    116  CG        15.7890   52.7960   39.3150 C.3   628  LYS628      0.0035
    117  CD        14.7720   51.7340   38.8690 C.3   628  LYS628      0.0206
    118  CE        13.5390   51.7170   39.7720 C.3   628  LYS628      0.1093
    119  NZ        12.6150   50.5530   39.4680 N.3   628  LYS628     -0.1314
    120  N         19.8860   52.9770   40.2400 N.am  629  TYR629     -0.1976
    121  CA        20.5230   52.6260   41.5140 C.3   629  TYR629      0.1639
    122  C         21.1540   53.8000   42.2150 C.2   629  TYR629      0.2290
    123  O         21.3250   53.7130   43.3970 O.2   629  TYR629     -0.2864
    124  CB        21.6450   51.5760   41.3320 C.3   629  TYR629      0.0560
    125  CG        21.2130   50.1680   40.9230 C.ar  629  TYR629     -0.0198
    126  CD1       20.0670   49.5530   41.4710 C.ar  629  TYR629     -0.0009
    127  CD2       21.9860   49.4300   40.0220 C.ar  629  TYR629     -0.0009
    128  CE1       19.7160   48.2640   41.1260 C.ar  629  TYR629      0.0417
    129  CE2       21.6410   48.1310   39.6750 C.ar  629  TYR629      0.0417
    130  CZ        20.5150   47.5530   40.2190 C.ar  629  TYR629      0.1957
    131  OH        20.1920   46.2750   39.8260 O.3   629  TYR629     -0.2866
@<TRIPOS>BOND
     1    15    14    2
     2    14    13    1
     3    13    16    1
     4    13    12    1
     5    16    17    1
     6     4     3    2
     7    17    18    1
     8    18    19    1
     9    25    26    2
    10    25    24    1
    11    12     3   am
    12     3     2    1
    13    24    23    1
    14    24    27    1
    15    19    20    2
    16    10     8   ar
    17    10    11   ar
    18    27    28    1
    19     8     6   ar
    20     1     2    1
    21     2     5    1
    22    29    28    2
    23    11     9   ar
    24     6     5    1
    25     6     7   ar
    26    28    30   am
    27    20    21    1
    28    20    22    1
    29     9     7   ar
    30   111   112    1
    31   115   112    1
    32   115   116    1
    33   104   103    2
    34   112   113    1
    35   117   116    1
    36   117   118    1
    37   119   118    1
    38   129   127   ar
    39   129   130   ar
    40    51    50    2
    41    92    91    2
    42   105   106    1
    43   105   102    1
    44   131   130    1
    45   103   102    1
    46   107   106   ar
    47   107   109   ar
    48   127   125   ar
    49    58    57    1
    50    58    59    1
    51   113   120   am
    52   113   114    2
    53   130   128   ar
    54   120   121    1
    55    98    96   ar
    56    98    99   ar
    57   106   108   ar
    58    96    94   ar
    59    50    49    1
    60   102   101    1
    61   109   110   ar
    62   125   124    1
    63   125   126   ar
    64    91   101   am
    65    91    90    1
    66   128   126   ar
    67   100    99    1
    68   124   121    1
    69    60    59    2
    70    59    61   am
    71    99    97   ar
    72   121   122    1
    73    94    93    1
    74    94    95   ar
    75   108   110   ar
    76    89    90    1
    77    93    90    1
    78    52    49    1
    79    52    53    1
    80    49    48    1
    81   122   123    2
    82    55    54   ar
    83    61    62    1
    84    97    95   ar
    85    42    41    2
    86    78    77    1
    87    78    79    1
    88    53    54    1
    89    54    56   ar
    90    48    41   am
    91    66    67    1
    92    66    65    1
    93    66    68    1
    94    41    40    1
    95    62    65    1
    96    62    63    1
    97    63    64    2
    98    79    80    2
    99    79    81   am
   100    40    39    1
   101    40    43    1
   102    46    45   ar
   103    38    36   ar
   104    47    45   ar
   105    81    82    1
   106    45    44    1
   107    43    44    1
   108    36    35    1
   109    36    37   ar
   110    82    83    1
   111    82    85    1
   112    35    32    1
   113    84    83    2
   114    34    33    2
   115    85    86    1
   116    88    86   am
   117    86    87    2
   118    33    32    1
   119    32    31    1
   120    76    74   ar
   121    74    75   ar
   122    74    73    1
   123    73    70    1
   124    70    71    1
   125    70    69    1
   126    71    72    2
