@<TRIPOS>MOLECULE
tmp/2c6iA00.pdb
 182 174 0 0 0
SMALL
GASTEIGER

@<TRIPOS>ATOM
      1  N         -0.5100   23.9900    4.0380 N.3    10  ILE10      -0.1231
      2  CA         0.6370   24.3730    4.8640 C.3    10  ILE10       0.1692
      3  C          0.3730   24.1900    6.3680 C.2    10  ILE10       0.2593
      4  O          1.1880   24.6080    7.2200 O.2    10  ILE10      -0.2718
      5  CB         1.0620   25.8330    4.5990 C.3    10  ILE10       0.0266
      6  CG1       -0.1010   26.8020    4.8410 C.3    10  ILE10       0.0019
      7  CG2        1.6020   25.9970    3.1920 C.3    10  ILE10       0.0020
      8  CD1        0.2640   28.2770    4.5450 C.3    10  ILE10       0.0001
      9  N         -0.7700   23.5940    6.6930 N.am   11  GLY11      -0.1942
     10  CA        -1.1320   23.3710    8.0830 C.3    11  GLY11       0.2014
     11  C         -2.5850   23.0090    8.2960 C.2    11  GLY11       0.2639
     12  O         -3.4200   23.1250    7.3750 O.2    11  GLY11      -0.2714
     13  N         -2.8830   22.5640    9.5230 N.am   12  GLU12      -0.1963
     14  CA        -4.2300   22.2440    9.9510 C.3    12  GLU12       0.1733
     15  C         -4.3940   22.6300   11.4330 C.2    12  GLU12       0.2617
     16  O         -3.8260   21.9760   12.3320 O.2    12  GLU12      -0.2715
     17  CB        -4.5610   20.7530    9.7360 C.3    12  GLU12       0.0429
     18  CG        -3.5850   19.9470    8.8960 C.3    12  GLU12       0.1163
     19  CD        -4.2920   19.0120    7.9320 C.2    12  GLU12       0.3649
     20  OE1       -4.6750   19.4630    6.8310 O.co2  12  GLU12      -0.2457
     21  OE2       -4.4720   17.8270    8.2760 O.co2  12  GLU12      -0.2457
     22  N         -5.1520   23.7030   11.6750 N.am   13  GLY13      -0.1940
     23  CA        -5.4110   24.1970   13.0160 C.3    13  GLY13       0.2014
     24  C         -6.6170   23.5740   13.6960 C.2    13  GLY13       0.2639
     25  O         -7.2880   22.6890   13.1590 O.2    13  GLY13      -0.2714
     26  N         -6.8970   24.0590   14.8960 N.am   14  THR14      -0.1950
     27  CA        -8.1220   23.6960   15.5970 C.3    14  THR14       0.1897
     28  C         -9.3640   24.2150   14.8420 C.2    14  THR14       0.2313
     29  O        -10.4870   23.8250   15.1660 O.2    14  THR14      -0.2863
     30  CB        -8.1050   24.2740   17.0400 C.3    14  THR14       0.1794
     31  OG1       -7.7260   25.6570   17.0100 O.3    14  THR14      -0.2208
     32  CG2       -7.0090   23.6250   17.9110 C.3    14  THR14       0.0378
     33  N         -5.3290   25.2310    6.3230 N.3    18  VAL18      -0.1245
     34  CA        -4.6090   26.4270    5.9160 C.3    18  VAL18       0.1561
     35  C         -3.8900   26.1530    4.5940 C.2    18  VAL18       0.2260
     36  O         -3.1190   25.1910    4.4550 O.2    18  VAL18      -0.2867
     37  CB        -3.5990   26.9030    7.0280 C.3    18  VAL18       0.0252
     38  CG1       -2.8790   28.2010    6.6300 C.3    18  VAL18       0.0019
     39  CG2       -4.2990   27.1020    8.3970 C.3    18  VAL18       0.0019
     40  N         -1.9240   33.4450    3.1390 N.3    31  ALA31      -0.1245
     41  CA        -2.3540   32.2360    3.8210 C.3    31  ALA31       0.1562
     42  C         -3.8730   32.3280    3.8780 C.2    31  ALA31       0.2260
     43  O         -4.4000   33.3160    4.4340 O.2    31  ALA31      -0.2867
     44  CB        -1.7500   32.2260    5.2340 C.3    31  ALA31       0.0290
     45  N         -7.3140   30.5650    5.2400 N.3    33  LYS33      -0.1245
     46  CA        -7.8030   29.5990    6.2310 C.3    33  LYS33       0.1561
     47  C         -9.3170   29.4620    6.1060 C.2    33  LYS33       0.2260
     48  O        -10.0270   30.4290    6.3230 O.2    33  LYS33      -0.2867
     49  CB        -7.3750   30.0460    7.6440 C.3    33  LYS33       0.0271
     50  CG        -5.8220   30.1810    7.7510 C.3    33  LYS33       0.0035
     51  CD        -5.3360   30.7500    9.0990 C.3    33  LYS33       0.0206
     52  CE        -3.8210   30.8140    9.1690 C.3    33  LYS33       0.1093
     53  NZ        -3.3700   30.7940   10.6230 N.3    33  LYS33      -0.1314
     54  N          0.6480   38.6540   12.6420 N.3    58  VAL58      -0.1245
     55  CA         0.3760   38.3160   11.2500 C.3    58  VAL58       0.1561
     56  C         -0.8800   39.0630   10.8170 C.2    58  VAL58       0.2260
     57  O         -1.9100   38.8730   11.4140 O.2    58  VAL58      -0.2867
     58  CB         0.1670   36.8010   10.9930 C.3    58  VAL58       0.0252
     59  CG1       -0.1060   36.5310    9.4630 C.3    58  VAL58       0.0019
     60  CG2        1.4060   36.0020   11.4590 C.3    58  VAL58       0.0019
     61  N         -4.7980   35.7990    5.4470 N.3    74  PHE74      -0.1227
     62  CA        -3.6810   36.4070    6.1710 C.3    74  PHE74       0.1736
     63  C         -2.5030   36.7520    5.2630 C.2    74  PHE74       0.2595
     64  O         -2.2890   36.1440    4.2010 O.2    74  PHE74      -0.2718
     65  CB        -3.1860   35.4790    7.3010 C.3    74  PHE74       0.0547
     66  CG        -4.1220   35.3790    8.4580 C.ar   74  PHE74      -0.0202
     67  CD1       -4.0620   36.3010    9.4960 C.ar   74  PHE74      -0.0042
     68  CD2       -5.0430   34.3330    8.5350 C.ar   74  PHE74      -0.0042
     69  CE1       -4.9230   36.1930   10.5990 C.ar   74  PHE74      -0.0003
     70  CE2       -5.8940   34.2190    9.6200 C.ar   74  PHE74      -0.0003
     71  CZ        -5.8340   35.1690   10.6580 C.ar   74  PHE74      -0.0000
     72  N         -1.7370   37.7420    5.7170 N.am   75  GLU75      -0.1965
     73  CA        -0.3610   37.9270    5.2670 C.3    75  GLU75       0.1733
     74  C          0.3630   36.5570    5.2900 C.2    75  GLU75       0.2616
     75  O          0.3130   35.8770    6.2940 O.2    75  GLU75      -0.2715
     76  CB         0.3170   38.7810    6.3140 C.3    75  GLU75       0.0429
     77  CG         1.8040   39.0280    6.0870 C.3    75  GLU75       0.1163
     78  CD         2.4380   39.8000    7.2670 C.2    75  GLU75       0.3649
     79  OE1        1.8420   39.9430    8.3800 O.co2  75  GLU75      -0.2457
     80  OE2        3.5860   40.2340    7.1150 O.co2  75  GLU75      -0.2457
     81  N          1.0350   36.1790    4.2060 N.am   76  PHE76      -0.1960
     82  CA         1.7770   34.8920    4.1640 C.3    76  PHE76       0.1771
     83  C          3.1930   34.9910    4.7210 C.2    76  PHE76       0.2619
     84  O          3.9390   35.9010    4.3350 O.2    76  PHE76      -0.2715
     85  CB         1.8470   34.3750    2.7230 C.3    76  PHE76       0.0574
     86  CG         2.5110   33.0390    2.6090 C.ar   76  PHE76      -0.0200
     87  CD1        3.8120   32.9360    2.1690 C.ar   76  PHE76      -0.0042
     88  CD2        1.8410   31.8820    2.9910 C.ar   76  PHE76      -0.0042
     89  CE1        4.4390   31.6850    2.1000 C.ar   76  PHE76      -0.0003
     90  CE2        2.4300   30.6730    2.9080 C.ar   76  PHE76      -0.0003
     91  CZ         3.7430   30.5660    2.4530 C.ar   76  PHE76      -0.0000
     92  N          3.5550   34.0730    5.6490 N.am   77  LEU77      -0.1963
     93  CA         4.9310   33.9190    6.1170 C.3    77  LEU77       0.1728
     94  C          5.4640   32.5260    5.7580 C.2    77  LEU77       0.2616
     95  O          4.7150   31.5430    5.7550 O.2    77  LEU77      -0.2715
     96  CB         5.0840   34.1990    7.6340 C.3    77  LEU77       0.0311
     97  CG         5.2030   35.7190    7.9330 C.3    77  LEU77       0.0022
     98  CD1        3.7850   36.2810    8.1320 C.3    77  LEU77       0.0001
     99  CD2        6.0600   36.1040    9.1410 C.3    77  LEU77       0.0001
    100  N          6.7530   32.4500    5.4750 N.am   78  HIS78      -0.1959
    101  CA         7.2790   31.2700    4.8050 C.3    78  HIS78       0.1787
    102  C          7.6890   30.1410    5.7530 C.2    78  HIS78       0.2620
    103  O          7.8850   29.0340    5.3080 O.2    78  HIS78      -0.2715
    104  CB         8.4720   31.6220    3.9360 C.3    78  HIS78       0.0785
    105  CG         8.1150   32.2640    2.6360 C.ar   78  HIS78       0.0821
    106  ND1        7.8390   33.6100    2.5280 N.ar   78  HIS78      -0.2267
    107  CD2        8.0290   31.7580    1.3810 C.ar   78  HIS78       0.1154
    108  CE1        7.6290   33.9140    1.2560 C.ar   78  HIS78       0.1986
    109  NE2        7.7030   32.8030    0.5430 N.ar   78  HIS78      -0.2212
    110  N          7.7470   30.3920    7.0560 N.am   79  GLN79      -0.1963
    111  CA         8.2940   29.3750    7.9750 C.3    79  GLN79       0.1733
    112  C          7.8220   29.5410    9.3940 C.2    79  GLN79       0.2616
    113  O          7.5700   30.6540    9.8300 O.2    79  GLN79      -0.2715
    114  CB         9.8330   29.3910    7.9560 C.3    79  GLN79       0.0408
    115  CG        10.4440   28.1580    8.6810 C.3    79  GLN79       0.0908
    116  CD        11.8210   27.8040    8.1830 C.2    79  GLN79       0.2608
    117  OE1       11.9770   27.3310    7.0590 O.2    79  GLN79      -0.2717
    118  NE2       12.8280   28.0520    9.0060 N.am   79  GLN79      -0.0878
    119  N          7.7250   28.4380   10.1380 N.am   80  ASP80      -0.1971
    120  CA         7.4170   28.5530   11.5650 C.3    80  ASP80       0.1709
    121  C          8.6520   28.2690   12.4310 C.2    80  ASP80       0.2293
    122  O          9.6900   27.8110   11.9230 O.2    80  ASP80      -0.2864
    123  CB         6.2350   27.6900   11.9810 C.3    80  ASP80       0.1436
    124  CG         6.4900   26.2110   11.8260 C.2    80  ASP80       0.3671
    125  OD1        7.5580   25.7050   12.2870 O.co2  80  ASP80      -0.2456
    126  OD2        5.6570   25.4840   11.2700 O.co2  80  ASP80      -0.2456
    127  N          9.8130   24.3920   12.6910 N.3    83  LYS83      -0.1245
    128  CA        10.7070   24.0760   11.5740 C.3    83  LYS83       0.1561
    129  C         12.0890   24.7370   11.7030 C.2    83  LYS83       0.2260
    130  O         13.0970   24.1300   11.3660 O.2    83  LYS83      -0.2867
    131  CB        10.0460   24.4120   10.2180 C.3    83  LYS83       0.0271
    132  CG        10.9810   24.1990    8.9840 C.3    83  LYS83       0.0035
    133  CD        10.2060   23.7260    7.7610 C.3    83  LYS83       0.0206
    134  CE        10.9430   24.0080    6.4250 C.3    83  LYS83       0.1093
    135  NZ         9.9150   23.9310    5.2770 N.3    83  LYS83      -0.1314
    136  N          2.2140   28.4900   20.4160 N.3   123  LYS123     -0.1245
    137  CA         3.0330   27.2960   20.1940 C.3   123  LYS123      0.1561
    138  C          4.0030   27.5510   19.0450 C.2   123  LYS123      0.2260
    139  O          3.7520   28.4780   18.2320 O.2   123  LYS123     -0.2867
    140  CB         2.1610   26.0310   19.9420 C.3   123  LYS123      0.0271
    141  CG         1.3380   26.0760   18.6740 C.3   123  LYS123      0.0035
    142  CD         0.2880   24.9570   18.6160 C.3   123  LYS123      0.0206
    143  CE        -1.0500   25.5580   18.2990 C.3   123  LYS123      0.1093
    144  NZ        -2.1500   24.5580   18.4210 N.3   123  LYS123     -0.1314
    145  N          4.4540   26.2770   16.2490 N.3   125  GLN125     -0.1231
    146  CA         3.8320   26.2830   14.9200 C.3   125  GLN125      0.1698
    147  C          3.0410   27.5290   14.5760 C.2   125  GLN125      0.2592
    148  O          2.8400   27.7800   13.4140 O.2   125  GLN125     -0.2718
    149  CB         2.8380   25.1320   14.7690 C.3   125  GLN125      0.0381
    150  CG         3.4110   23.7200   14.6510 C.3   125  GLN125      0.0905
    151  CD         2.3540   22.6950   15.1670 C.2   125  GLN125      0.2608
    152  OE1        1.5040   22.2570   14.4040 O.2   125  GLN125     -0.2717
    153  NE2        2.3640   22.4090   16.4830 N.am  125  GLN125     -0.0878
    154  N          2.5310   28.2620   15.5500 N.am  126  ASN126     -0.1974
    155  CA         1.9010   29.5680   15.2180 C.3   126  ASN126      0.1688
    156  C          2.7830   30.8210   15.4050 C.2   126  ASN126      0.2292
    157  O          2.2880   31.9920   15.3770 O.2   126  ASN126     -0.2864
    158  CB         0.4690   29.7260   15.7940 C.3   126  ASN126      0.1181
    159  CG         0.3910   29.5890   17.3050 C.2   126  ASN126      0.2629
    160  OD1        1.2280   30.1030   18.0400 O.2   126  ASN126     -0.2716
    161  ND2       -0.6520   28.9240   17.7740 N.am  126  ASN126     -0.0877
    162  N          5.6670   32.6950   13.5020 N.3   128  LEU128     -0.1245
    163  CA         6.1060   32.6770   12.1200 C.3   128  LEU128      0.1561
    164  C          7.2000   33.6750   11.8280 C.2   128  LEU128      0.2260
    165  O          7.1890   34.8010   12.3590 O.2   128  LEU128     -0.2867
    166  CB         4.9030   32.8500   11.1620 C.3   128  LEU128      0.0270
    167  CG         3.6740   31.9480   11.3570 C.3   128  LEU128      0.0019
    168  CD1        2.6800   32.2510   10.1910 C.3   128  LEU128      0.0001
    169  CD2        3.9850   30.4740   11.3500 C.3   128  LEU128      0.0001
    170  N          0.6190   34.2680   14.7410 N.3   138  ALA138     -0.1231
    171  CA        -0.4890   33.8410   13.8980 C.3   138  ALA138      0.1694
    172  C         -1.6880   33.4250   14.7530 C.2   138  ALA138      0.2592
    173  O         -1.5260   32.9190   15.8540 O.2   138  ALA138     -0.2718
    174  CB        -0.0880   32.6820   13.0230 C.3   138  ALA138      0.0304
    175  N         -2.8830   33.5930   14.2080 N.am  139  ASP139     -0.1974
    176  CA        -4.1020   33.1380   14.8680 C.3   139  ASP139      0.1709
    177  C         -4.4060   33.8140   16.1720 C.2   139  ASP139      0.2293
    178  O         -5.1060   33.2470   17.0000 O.2   139  ASP139     -0.2864
    179  CB        -4.0930   31.6070   15.0400 C.3   139  ASP139      0.1436
    180  CG        -3.9450   30.9170   13.7350 C.2   139  ASP139      0.3671
    181  OD1       -4.2250   31.5960   12.7230 O.co2 139  ASP139     -0.2456
    182  OD2       -3.5620   29.7290   13.5920 O.co2 139  ASP139     -0.2456
@<TRIPOS>BOND
     1   109   108   ar
     2   109   107   ar
     3   108   106   ar
     4   107   105   ar
     5    89    87   ar
     6    89    91   ar
     7    87    86   ar
     8    91    90   ar
     9   106   105   ar
    10    86    85    1
    11    86    88   ar
    12   105   104    1
    13    85    82    1
    14    90    88   ar
    15    40    41    1
    16     7     5    1
    17    41    42    1
    18    41    44    1
    19    42    43    2
    20   104   101    1
    21     1     2    1
    22    82    81    1
    23    82    83    1
    24    64    63    2
    25    81    74   am
    26    84    83    2
    27    36    35    2
    28     8     6    1
    29    35    34    1
    30     5     6    1
    31     5     2    1
    32    83    92   am
    33   101   100    1
    34   101   102    1
    35     2     3    1
    36    45    46    1
    37    63    72   am
    38    63    62    1
    39    73    74    1
    40    73    72    1
    41    73    76    1
    42   135   134    1
    43    74    75    2
    44   103   102    2
    45    61    62    1
    46   100    94   am
    47    92    93    1
    48   102   110   am
    49    95    94    2
    50    94    93    1
    51    34    33    1
    52    34    37    1
    53    77    76    1
    54    77    78    1
    55    47    46    1
    56    47    48    2
    57    93    96    1
    58    62    65    1
    59    46    49    1
    60     3     9   am
    61     3     4    2
    62   134   133    1
    63    38    37    1
    64     9    10    1
    65    20    19   ar
    66    37    39    1
    67   110   111    1
    68   117   116    2
    69    80    78   ar
    70    78    79   ar
    71    65    66    1
    72    12    11    2
    73    96    97    1
    74    49    50    1
    75    50    51    1
    76   133   132    1
    77    19    21   ar
    78    19    18    1
    79    97    98    1
    80    97    99    1
    81   114   111    1
    82   114   115    1
    83   111   112    1
    84    10    11    1
    85   116   115    1
    86   116   118   am
    87    11    13   am
    88    66    68   ar
    89    66    67   ar
    90    68    70   ar
    91    18    17    1
    92   132   131    1
    93    51    52    1
    94    52    53    1
    95   112   113    2
    96   112   119   am
    97    59    58    1
    98    67    69   ar
    99    13    14    1
   100    70    71   ar
   101    17    14    1
   102    14    15    1
   103   119   120    1
   104   168   167    1
   105   131   128    1
   106    69    71   ar
   107    56    55    1
   108    56    57    2
   109    58    55    1
   110    58    60    1
   111   166   167    1
   112   166   163    1
   113    55    54    1
   114   126   124   ar
   115   169   167    1
   116   130   129    2
   117    15    22   am
   118    15    16    2
   119   120   123    1
   120   120   121    1
   121   128   129    1
   122   128   127    1
   123    22    23    1
   124   124   123    1
   125   124   125   ar
   126   164   163    1
   127   164   165    2
   128   122   121    2
   129   163   162    1
   130   181   180   ar
   131    23    24    1
   132   174   171    1
   133    25    24    2
   134   148   147    2
   135   182   180   ar
   136    24    26   am
   137   180   179    1
   138   171   170    1
   139   171   172    1
   140   175   172   am
   141   175   176    1
   142   152   151    2
   143   147   146    1
   144   147   154   am
   145   150   149    1
   146   150   151    1
   147   172   173    2
   148   149   146    1
   149    28    29    2
   150    28    27    1
   151   176   179    1
   152   176   177    1
   153    26    27    1
   154   146   145    1
   155   151   153   am
   156   155   156    1
   157   155   154    1
   158   155   158    1
   159   157   156    2
   160    27    30    1
   161   158   159    1
   162   177   178    2
   163    31    30    1
   164    30    32    1
   165   159   161   am
   166   159   160    2
   167   139   138    2
   168   143   144    1
   169   143   142    1
   170   142   141    1
   171   141   140    1
   172   138   137    1
   173   140   137    1
   174   137   136    1
