@<TRIPOS>MOLECULE
tmp/2c6kA00.pdb
 175 167 0 0 0
SMALL
GASTEIGER

@<TRIPOS>ATOM
      1  N         13.7970  -14.7090    5.7810 N.3    10  ILE10      -0.1231
      2  CA        12.6940  -13.7860    5.9340 C.3    10  ILE10       0.1692
      3  C         12.8940  -12.5810    5.0370 C.2    10  ILE10       0.2593
      4  O         11.9230  -11.9730    4.5900 O.2    10  ILE10      -0.2718
      5  CB        12.2970  -13.4700    7.3970 C.3    10  ILE10       0.0266
      6  CG1       13.4990  -13.3820    8.3280 C.3    10  ILE10       0.0019
      7  CG2       11.3950  -14.5720    7.9090 C.3    10  ILE10       0.0020
      8  CD1       13.1710  -13.7820    9.7960 C.3    10  ILE10       0.0001
      9  N         14.1460  -12.2890    4.7030 N.am   11  GLY11      -0.1942
     10  CA        14.4300  -11.2290    3.7520 C.3    11  GLY11       0.2014
     11  C         15.8220  -10.6700    3.8760 C.2    11  GLY11       0.2639
     12  O         16.6930  -11.2690    4.5200 O.2    11  GLY11      -0.2714
     13  N         16.0360   -9.5200    3.2410 N.am   12  GLU12      -0.1963
     14  CA        17.3230   -8.8460    3.2900 C.3    12  GLU12       0.1733
     15  C         17.1450   -7.5690    4.0550 C.2    12  GLU12       0.2616
     16  O         16.3060   -6.7290    3.7010 O.2    12  GLU12      -0.2715
     17  CB        17.8940   -8.5750    1.8880 C.3    12  GLU12       0.0429
     18  CG        16.8730   -8.5760    0.7600 C.3    12  GLU12       0.1163
     19  CD        17.3110   -9.4140   -0.4270 C.2    12  GLU12       0.3649
     20  OE1       17.9550  -10.4650   -0.2200 O.co2  12  GLU12      -0.2457
     21  OE2       17.0100   -9.0200   -1.5740 O.co2  12  GLU12      -0.2457
     22  N         17.9130   -7.4370    5.1330 N.am   13  GLY13      -0.1955
     23  CA        17.9050   -6.2310    5.9320 C.3    13  GLY13       0.1869
     24  C         18.9700   -5.2760    5.4480 C.2    13  GLY13       0.2309
     25  O         19.7160   -5.5700    4.4990 O.2    13  GLY13      -0.2863
     26  N         18.4540  -11.9370    6.6060 N.3    18  VAL18      -0.1245
     27  CA        17.8210  -12.2960    7.8670 C.3    18  VAL18       0.1561
     28  C         17.1040  -13.6280    7.6830 C.2    18  VAL18       0.2260
     29  O         16.3240  -13.8130    6.7320 O.2    18  VAL18      -0.2867
     30  CB        16.8280  -11.1860    8.3430 C.3    18  VAL18       0.0252
     31  CG1       16.2540  -11.5070    9.7190 C.3    18  VAL18       0.0019
     32  CG2       17.5210   -9.8330    8.3830 C.3    18  VAL18       0.0019
     33  N         15.4270  -14.9100   15.1280 N.3    31  ALA31      -0.1245
     34  CA        15.7880  -14.2560   13.8830 C.3    31  ALA31       0.1562
     35  C         17.3110  -14.1800   13.8900 C.2    31  ALA31       0.2260
     36  O         17.9230  -13.5630   14.8020 O.2    31  ALA31      -0.2867
     37  CB        15.1600  -12.8520   13.7970 C.3    31  ALA31       0.0290
     38  N         20.6280  -12.8950   12.0560 N.3    33  LYS33      -0.1245
     39  CA        21.0210  -11.8410   11.1410 C.3    33  LYS33       0.1561
     40  C         22.5300  -11.9040   10.9500 C.2    33  LYS33       0.2260
     41  O         23.2760  -11.8050   11.9120 O.2    33  LYS33      -0.2867
     42  CB        20.5540  -10.4790   11.6550 C.3    33  LYS33       0.0271
     43  CG        19.0440  -10.4180   11.8910 C.3    33  LYS33       0.0035
     44  CD        18.5040   -9.0100   11.9920 C.3    33  LYS33       0.0206
     45  CE        17.1000   -9.0530   12.5680 C.3    33  LYS33       0.1093
     46  NZ        16.4210   -7.7480   12.5080 N.3    33  LYS33      -0.1314
     47  N         12.6980   -5.4310   20.3010 N.3    58  VAL58      -0.1245
     48  CA        13.0280   -6.8120   19.9350 C.3    58  VAL58       0.1561
     49  C         14.2750   -7.2540   20.6870 C.2    58  VAL58       0.2260
     50  O         15.3190   -6.6120   20.5830 O.2    58  VAL58      -0.2867
     51  CB        13.2560   -7.0200   18.3950 C.3    58  VAL58       0.0252
     52  CG1       13.5930   -8.4980   18.1200 C.3    58  VAL58       0.0019
     53  CG2       12.0140   -6.6910   17.6390 C.3    58  VAL58       0.0019
     54  N         18.1970  -12.6150   17.5030 N.3    74  PHE74      -0.1227
     55  CA        17.1220  -11.8150   18.0910 C.3    74  PHE74       0.1736
     56  C         15.9550  -12.7220   18.4020 C.2    74  PHE74       0.2595
     57  O         15.7780  -13.7570   17.7550 O.2    74  PHE74      -0.2718
     58  CB        16.6490  -10.7090   17.1320 C.3    74  PHE74       0.0547
     59  CG        17.5830   -9.5100   17.0370 C.ar   74  PHE74      -0.0202
     60  CD1       17.4700   -8.4400   17.9400 C.ar   74  PHE74      -0.0042
     61  CD2       18.5240   -9.4260   16.0100 C.ar   74  PHE74      -0.0042
     62  CE1       18.3060   -7.3260   17.8420 C.ar   74  PHE74      -0.0003
     63  CE2       19.3680   -8.3230   15.8830 C.ar   74  PHE74      -0.0003
     64  CZ        19.2620   -7.2630   16.8010 C.ar   74  PHE74      -0.0000
     65  N         15.1770  -12.3380   19.4100 N.am   75  GLU75      -0.1965
     66  CA        13.7760  -12.7460   19.5320 C.3    75  GLU75       0.1733
     67  C         13.0770  -12.7410   18.1640 C.2    75  GLU75       0.2616
     68  O         13.1420  -11.7420   17.4450 O.2    75  GLU75      -0.2715
     69  CB        13.0790  -11.6750   20.3880 C.3    75  GLU75       0.0429
     70  CG        11.6330  -11.9780   20.7260 C.3    75  GLU75       0.1163
     71  CD        10.9230  -10.8080   21.4120 C.2    75  GLU75       0.3649
     72  OE1       11.5380   -9.7290   21.6210 O.co2  75  GLU75      -0.2457
     73  OE2        9.7160  -10.9650   21.7190 O.co2  75  GLU75      -0.2457
     74  N         12.3710  -13.8210   17.8230 N.am   76  PHE76      -0.1960
     75  CA        11.6370  -13.8840   16.5580 C.3    76  PHE76       0.1771
     76  C         10.2210  -13.3190   16.6810 C.2    76  PHE76       0.2619
     77  O          9.5480  -13.6350   17.6310 O.2    76  PHE76      -0.2715
     78  CB        11.5600  -15.3360   16.0410 C.3    76  PHE76       0.0574
     79  CG        10.8490  -15.4610   14.7070 C.ar   76  PHE76      -0.0200
     80  CD1        9.5170  -15.8490   14.6500 C.ar   76  PHE76      -0.0042
     81  CD2       11.4980  -15.1300   13.5240 C.ar   76  PHE76      -0.0042
     82  CE1        8.8760  -15.9790   13.4250 C.ar   76  PHE76      -0.0003
     83  CE2       10.8510  -15.2310   12.2920 C.ar   76  PHE76      -0.0003
     84  CZ         9.5340  -15.6440   12.2480 C.ar   76  PHE76      -0.0000
     85  N          9.8200  -12.4320   15.7520 N.am   77  LEU77      -0.1963
     86  CA         8.4340  -11.9920   15.5890 C.3    77  LEU77       0.1728
     87  C          7.9640  -12.3450   14.1740 C.2    77  LEU77       0.2616
     88  O          8.7670  -12.3360   13.2120 O.2    77  LEU77      -0.2715
     89  CB         8.2600  -10.4780   15.8400 C.3    77  LEU77       0.0311
     90  CG         8.1920  -10.1710   17.3470 C.3    77  LEU77       0.0022
     91  CD1        9.5960   -9.8590   17.9250 C.3    77  LEU77       0.0001
     92  CD2        7.1740   -9.1100   17.6980 C.3    77  LEU77       0.0001
     93  N          6.6750  -12.6400   14.0440 N.am   78  HIS78      -0.1959
     94  CA         6.1610  -13.2770   12.8170 C.3    78  HIS78       0.1787
     95  C          5.7310  -12.3280   11.6810 C.2    78  HIS78       0.2620
     96  O          5.4890  -12.7690   10.5500 O.2    78  HIS78      -0.2715
     97  CB         4.9710  -14.1300   13.1580 C.3    78  HIS78       0.0785
     98  CG         5.2910  -15.3910   13.8920 C.ar   78  HIS78       0.0821
     99  ND1        5.4970  -15.4280   15.2610 N.ar   78  HIS78      -0.2267
    100  CD2        5.3710  -16.6730   13.4560 C.ar   78  HIS78       0.1154
    101  CE1        5.6810  -16.6810   15.6390 C.ar   78  HIS78       0.1986
    102  NE2        5.6200  -17.4560   14.5610 N.ar   78  HIS78      -0.2212
    103  N          5.6220  -11.0320   11.9660 N.am   79  GLN79      -0.1963
    104  CA         5.0840  -10.1150   10.9680 C.3    79  GLN79       0.1733
    105  C          5.5750   -8.6960   11.2140 C.2    79  GLN79       0.2616
    106  O          5.7440   -8.3070   12.3440 O.2    79  GLN79      -0.2715
    107  CB         3.5550  -10.1380   10.9650 C.3    79  GLN79       0.0408
    108  CG         2.9650   -9.5320    9.6660 C.3    79  GLN79       0.0908
    109  CD         1.5560   -9.9800    9.4370 C.2    79  GLN79       0.2608
    110  OE1        1.2970  -11.1850    9.2400 O.2    79  GLN79      -0.2717
    111  NE2        0.6250   -9.0430    9.5250 N.am   79  GLN79      -0.0878
    112  N          5.7970   -7.9470   10.1410 N.am   80  ASP80      -0.1971
    113  CA         6.0940   -6.5080   10.2510 C.3    80  ASP80       0.1709
    114  C          4.8980   -5.6120    9.9360 C.2    80  ASP80       0.2293
    115  O          3.8450   -6.0800    9.4570 O.2    80  ASP80      -0.2864
    116  CB         7.2870   -6.1120    9.3910 C.3    80  ASP80       0.1436
    117  CG         6.9940   -6.2070    7.8790 C.2    80  ASP80       0.3671
    118  OD1        5.9480   -5.7090    7.4010 O.co2  80  ASP80      -0.2456
    119  OD2        7.7530   -6.7910    7.1160 O.co2  80  ASP80      -0.2456
    120  N          3.6700   -5.4010    6.0820 N.3    83  LYS83      -0.1245
    121  CA         2.8200   -6.5210    5.6760 C.3    83  LYS83       0.1561
    122  C          1.4210   -6.3950    6.2690 C.2    83  LYS83       0.2260
    123  O          0.4090   -6.6450    5.5920 O.2    83  LYS83      -0.2867
    124  CB         3.4730   -7.8590    6.0930 C.3    83  LYS83       0.0271
    125  CG         2.5730   -9.1070    5.9820 C.3    83  LYS83       0.0035
    126  CD         3.3970  -10.3740    5.6810 C.3    83  LYS83       0.0206
    127  CE         2.5420  -11.6240    5.6130 C.3    83  LYS83       0.1093
    128  NZ         3.4060  -12.8330    5.4190 N.3    83  LYS83      -0.1314
    129  N         11.2400    2.4310   10.1390 N.3   123  LYS123     -0.1245
    130  CA        10.4760    2.1820    8.9180 C.3   123  LYS123      0.1561
    131  C          9.5630    0.9890    9.1860 C.2   123  LYS123      0.2260
    132  O          9.8400    0.2100   10.0940 O.2   123  LYS123     -0.2867
    133  CB        11.4050    1.9680    7.7060 C.3   123  LYS123      0.0271
    134  CG        12.3250    0.7360    7.7290 C.3   123  LYS123      0.0035
    135  CD        13.6350    1.1470    7.0120 C.3   123  LYS123      0.0206
    136  CE        14.6030    0.0360    6.9260 C.3   123  LYS123      0.1093
    137  NZ        15.8140    0.5010    6.2300 N.3   123  LYS123     -0.1314
    138  N          9.0730   -1.7730    7.9450 N.3   125  GLN125     -0.1231
    139  CA         9.7720   -3.0630    7.9360 C.3   125  GLN125      0.1698
    140  C         10.5160   -3.4150    9.2370 C.2   125  GLN125      0.2592
    141  O         10.7560   -4.5810    9.4930 O.2   125  GLN125     -0.2718
    142  CB        10.7480   -3.1620    6.7510 C.3   125  GLN125      0.0381
    143  CG        10.0530   -3.4350    5.4150 C.3   125  GLN125      0.0905
    144  CD        10.9550   -3.1320    4.2330 C.2   125  GLN125      0.2608
    145  OE1       12.1830   -3.1800    4.3410 O.2   125  GLN125     -0.2717
    146  NE2       10.3470   -2.8180    3.0980 N.am  125  GLN125     -0.0878
    147  N         10.9340   -2.4360   10.0280 N.am  126  ASN126     -0.1974
    148  CA        11.5260   -2.8170   11.3160 C.3   126  ASN126      0.1688
    149  C         10.6490   -2.5870   12.5360 C.2   126  ASN126      0.2292
    150  O         11.1390   -2.5260   13.6610 O.2   126  ASN126     -0.2864
    151  CB        12.9880   -2.3610   11.4980 C.3   126  ASN126      0.1181
    152  CG        13.1730   -0.8820   11.3730 C.2   126  ASN126      0.2629
    153  OD1       12.3340   -0.1040   11.8230 O.2   126  ASN126     -0.2716
    154  ND2       14.2820   -0.4700   10.7430 N.am  126  ASN126     -0.0877
    155  N          7.8030   -4.5480   14.4200 N.3   128  LEU128     -0.1245
    156  CA         7.3430   -5.9420   14.3530 C.3   128  LEU128      0.1561
    157  C          6.2430   -6.2620   15.3450 C.2   128  LEU128      0.2260
    158  O          6.2960   -5.7660   16.4750 O.2   128  LEU128     -0.2867
    159  CB         8.5400   -6.8670   14.5180 C.3   128  LEU128      0.0270
    160  CG         9.7370   -6.6360   13.5600 C.3   128  LEU128      0.0019
    161  CD1       10.8430   -7.5830   13.8910 C.3   128  LEU128      0.0001
    162  CD2        9.3300   -6.8780   12.1070 C.3   128  LEU128      0.0001
    163  N         12.7760   -3.3100   15.9040 N.3   138  ALA138     -0.1231
    164  CA        13.9080   -4.1620   15.5050 C.3   138  ALA138      0.1694
    165  C         15.1150   -3.3040   15.1280 C.2   138  ALA138      0.2592
    166  O         14.9530   -2.1630   14.7300 O.2   138  ALA138     -0.2718
    167  CB        13.5190   -5.0790   14.3250 C.3   138  ALA138      0.0304
    168  N         16.3120   -3.8650   15.2330 N.am  139  ASP139     -0.1974
    169  CA        17.5370   -3.2150   14.7740 C.3   139  ASP139      0.1709
    170  C         17.8480   -1.9100   15.4900 C.2   139  ASP139      0.2293
    171  O         18.5910   -1.0710   14.9650 O.2   139  ASP139     -0.2864
    172  CB        17.5300   -2.9820   13.2380 C.3   139  ASP139      0.1436
    173  CG        17.4940   -4.2690   12.4410 C.2   139  ASP139      0.3671
    174  OD1       17.8510   -5.3490   12.9690 O.co2 139  ASP139     -0.2456
    175  OD2       17.1250   -4.3060   11.2370 O.co2 139  ASP139     -0.2456
@<TRIPOS>BOND
     1    21    19   ar
     2    19    20   ar
     3    19    18    1
     4    18    17    1
     5    17    14    1
     6   146   144   am
     7    13    14    1
     8    13    11   am
     9    14    15    1
    10    16    15    2
    11    10    11    1
    12    10     9    1
    13    11    12    2
    14    15    22   am
    15   144   145    2
    16   144   143    1
    17    25    24    2
    18     4     3    2
    19     9     3   am
    20     3     2    1
    21    22    23    1
    22   143   142    1
    23   128   127    1
    24    24    23    1
    25   123   122    2
    26   127   126    1
    27   121   120    1
    28   121   124    1
    29   121   122    1
    30   126   125    1
    31     1     2    1
    32     2     5    1
    33   125   124    1
    34   137   136    1
    35    26    27    1
    36    29    28    2
    37   142   139    1
    38   136   135    1
    39   135   134    1
    40   119   117   ar
    41     5     7    1
    42     5     6    1
    43   118   117   ar
    44    28    27    1
    45   133   134    1
    46   133   130    1
    47    27    30    1
    48   117   116    1
    49   139   138    1
    50   139   140    1
    51     6     8    1
    52    30    32    1
    53    30    31    1
    54   130   131    1
    55   130   129    1
    56   131   132    2
    57   140   141    2
    58   140   147   am
    59   110   109    2
    60   116   113    1
    61   109   111   am
    62   109   108    1
    63   115   114    2
    64   108   107    1
    65   114   113    1
    66   147   148    1
    67   112   113    1
    68   112   105   am
    69    96    95    2
    70   154   152   am
    71    40    39    1
    72    40    41    2
    73   107   104    1
    74   104   105    1
    75   104   103    1
    76    39    42    1
    77    39    38    1
    78   105   106    2
    79   175   173   ar
    80   148   151    1
    81   148   149    1
    82   152   151    1
    83   152   153    2
    84    42    43    1
    85    95   103   am
    86    95    94    1
    87    43    44    1
    88    44    45    1
    89   162   160    1
    90    84    83   ar
    91    84    82   ar
    92    83    81   ar
    93   173   174   ar
    94   173   172    1
    95    46    45    1
    96   149   150    2
    97    94    97    1
    98    94    93    1
    99    97    98    1
   100    88    87    2
   101   172   169    1
   102    82    80   ar
   103   100    98   ar
   104   100   102   ar
   105    81    79   ar
   106   160   161    1
   107   160   159    1
   108    37    34    1
   109    34    35    1
   110    34    33    1
   111    35    36    2
   112    98    99   ar
   113    93    87   am
   114    87    86    1
   115   167   164    1
   116   156   155    1
   117   156   159    1
   118   156   157    1
   119   102   101   ar
   120    80    79   ar
   121    79    78    1
   122   166   165    2
   123   169   168    1
   124   169   170    1
   125   171   170    2
   126   165   168   am
   127   165   164    1
   128    99   101   ar
   129   157   158    2
   130   164   163    1
   131    86    85    1
   132    86    89    1
   133    85    76   am
   134    89    90    1
   135    63    61   ar
   136    63    64   ar
   137    61    59   ar
   138    78    75    1
   139    75    76    1
   140    75    74    1
   141    76    77    2
   142    64    62   ar
   143    59    58    1
   144    59    60   ar
   145    58    55    1
   146    90    92    1
   147    90    91    1
   148    68    67    2
   149    54    55    1
   150    53    51    1
   151    57    56    2
   152    74    67   am
   153    62    60   ar
   154    55    56    1
   155    52    51    1
   156    67    66    1
   157    51    48    1
   158    56    65   am
   159    65    66    1
   160    66    69    1
   161    48    47    1
   162    48    49    1
   163    69    70    1
   164    50    49    2
   165    70    71    1
   166    71    72   ar
   167    71    73   ar
