@<TRIPOS>MOLECULE
tmp/2c6mA00.pdb
 175 167 0 0 0
SMALL
GASTEIGER

@<TRIPOS>ATOM
      1  N         13.8230  -14.3870    5.9430 N.3    10  ILE10      -0.1231
      2  CA        12.8480  -13.3500    6.1910 C.3    10  ILE10       0.1692
      3  C         13.0080  -12.3150    5.0730 C.2    10  ILE10       0.2593
      4  O         12.0100  -11.8060    4.5260 O.2    10  ILE10      -0.2718
      5  CB        13.0120  -12.7310    7.5830 C.3    10  ILE10       0.0266
      6  CG1       12.8950  -13.8080    8.6720 C.3    10  ILE10       0.0019
      7  CG2       11.9520  -11.6340    7.7680 C.3    10  ILE10       0.0020
      8  CD1       13.1000  -13.3320   10.1250 C.3    10  ILE10       0.0001
      9  N         14.2630  -12.0450    4.7120 N.am   11  GLY11      -0.1942
     10  CA        14.6020  -11.0940    3.6660 C.3    11  GLY11       0.2014
     11  C         15.9510  -10.4400    3.8910 C.2    11  GLY11       0.2639
     12  O         16.7110  -10.8160    4.7920 O.2    11  GLY11      -0.2714
     13  N         16.2430   -9.4300    3.0720 N.am   12  GLU12      -0.1963
     14  CA        17.5420   -8.7750    3.1060 C.3    12  GLU12       0.1733
     15  C         17.4390   -7.5060    3.9160 C.2    12  GLU12       0.2616
     16  O         16.8230   -6.5190    3.4850 O.2    12  GLU12      -0.2715
     17  CB        18.0450   -8.4690    1.6810 C.3    12  GLU12       0.0429
     18  CG        17.5580   -9.4210    0.5970 C.3    12  GLU12       0.1163
     19  CD        18.5490  -10.5240    0.2710 C.2    12  GLU12       0.3649
     20  OE1       19.3150  -10.9450    1.1640 O.co2  12  GLU12      -0.2457
     21  OE2       18.5600  -10.9750   -0.8950 O.co2  12  GLU12      -0.2457
     22  N         18.0370   -7.5250    5.1000 N.am   13  GLY13      -0.1955
     23  CA        18.1220   -6.3340    5.9190 C.3    13  GLY13       0.1869
     24  C         19.2370   -5.3760    5.5170 C.2    13  GLY13       0.2309
     25  O         20.0840   -5.6580    4.6420 O.2    13  GLY13      -0.2863
     26  N         18.6590  -11.7690    6.7860 N.3    18  VAL18      -0.1245
     27  CA        18.0100  -12.1410    8.0370 C.3    18  VAL18       0.1561
     28  C         17.2230  -13.4370    7.8560 C.2    18  VAL18       0.2260
     29  O         16.3960  -13.5530    6.9450 O.2    18  VAL18      -0.2867
     30  CB        17.0910  -11.0130    8.5610 C.3    18  VAL18       0.0252
     31  CG1       16.4700  -11.3790    9.9350 C.3    18  VAL18       0.0019
     32  CG2       17.8690   -9.6920    8.6630 C.3    18  VAL18       0.0019
     33  N         15.4400  -14.8530   15.1430 N.3    31  ALA31      -0.1245
     34  CA        15.7950  -14.1750   13.9350 C.3    31  ALA31       0.1562
     35  C         17.2980  -14.1100   13.9750 C.2    31  ALA31       0.2260
     36  O         17.8670  -13.5420   14.9170 O.2    31  ALA31      -0.2867
     37  CB        15.1970  -12.7470   13.9200 C.3    31  ALA31       0.0290
     38  N         20.6700  -12.6590   12.2550 N.3    33  LYS33      -0.1245
     39  CA        21.1700  -11.6580   11.3190 C.3    33  LYS33       0.1561
     40  C         22.6900  -11.7780   11.1650 C.2    33  LYS33       0.2260
     41  O         23.4060  -11.6290   12.1460 O.2    33  LYS33      -0.2867
     42  CB        20.7770  -10.2560   11.8040 C.3    33  LYS33       0.0271
     43  CG        19.2310  -10.1340   12.0070 C.3    33  LYS33       0.0035
     44  CD        18.7480   -8.7180   12.3430 C.3    33  LYS33       0.0206
     45  CE        17.2420   -8.6950   12.4750 C.3    33  LYS33       0.1093
     46  NZ        16.6730   -7.3700   12.0670 N.3    33  LYS33      -0.1314
     47  N         12.7540   -5.2780   20.4010 N.3    58  VAL58      -0.1245
     48  CA        13.0450   -6.6620   20.0410 C.3    58  VAL58       0.1561
     49  C         14.2740   -7.0980   20.8310 C.2    58  VAL58       0.2260
     50  O         15.3220   -6.4240   20.8090 O.2    58  VAL58      -0.2867
     51  CB        13.2470   -6.8890   18.5020 C.3    58  VAL58       0.0252
     52  CG1       13.5940   -8.4050   18.2110 C.3    58  VAL58       0.0019
     53  CG2       11.9510   -6.6170   17.7270 C.3    58  VAL58       0.0019
     54  N         18.1950  -12.4300   17.5240 N.3    74  PHE74      -0.1227
     55  CA        17.0870  -11.7030   18.1710 C.3    74  PHE74       0.1736
     56  C         15.9130  -12.6050   18.5150 C.2    74  PHE74       0.2595
     57  O         15.7080  -13.6240   17.8850 O.2    74  PHE74      -0.2718
     58  CB        16.5930  -10.5930   17.2530 C.3    74  PHE74       0.0547
     59  CG        17.5410   -9.4260   17.1230 C.ar   74  PHE74      -0.0202
     60  CD1       17.4600   -8.3390   18.0230 C.ar   74  PHE74      -0.0042
     61  CD2       18.4600   -9.3720   16.0670 C.ar   74  PHE74      -0.0042
     62  CE1       18.2930   -7.2130   17.8820 C.ar   74  PHE74      -0.0003
     63  CE2       19.3340   -8.2600   15.9150 C.ar   74  PHE74      -0.0003
     64  CZ        19.2460   -7.1760   16.8320 C.ar   74  PHE74      -0.0000
     65  N         15.1400  -12.2050   19.5130 N.am   75  GLU75      -0.1965
     66  CA        13.7620  -12.6670   19.6930 C.3    75  GLU75       0.1733
     67  C         13.0630  -12.6710   18.3280 C.2    75  GLU75       0.2616
     68  O         13.1310  -11.7000   17.6060 O.2    75  GLU75      -0.2715
     69  CB        13.0640  -11.6270   20.5720 C.3    75  GLU75       0.0429
     70  CG        11.6580  -11.9710   21.0220 C.3    75  GLU75       0.1163
     71  CD        10.9150  -10.7470   21.5650 C.2    75  GLU75       0.3649
     72  OE1       11.4820   -9.6060   21.6260 O.co2  75  GLU75      -0.2457
     73  OE2        9.7240  -10.9210   21.8910 O.co2  75  GLU75      -0.2457
     74  N         12.3810  -13.7550   17.9730 N.am   76  PHE76      -0.1960
     75  CA        11.6440  -13.7830   16.7110 C.3    76  PHE76       0.1771
     76  C         10.2060  -13.2220   16.8180 C.2    76  PHE76       0.2619
     77  O          9.4820  -13.5930   17.7340 O.2    76  PHE76      -0.2715
     78  CB        11.5720  -15.2340   16.1740 C.3    76  PHE76       0.0574
     79  CG        10.8380  -15.3480   14.9010 C.ar   76  PHE76      -0.0200
     80  CD1        9.5010  -15.7610   14.8770 C.ar   76  PHE76      -0.0042
     81  CD2       11.4570  -14.9790   13.7140 C.ar   76  PHE76      -0.0042
     82  CE1        8.8280  -15.8350   13.6680 C.ar   76  PHE76      -0.0003
     83  CE2       10.8020  -15.0530   12.5070 C.ar   76  PHE76      -0.0003
     84  CZ         9.4880  -15.4940   12.4780 C.ar   76  PHE76      -0.0000
     85  N          9.8110  -12.3650   15.8540 N.am   77  LEU77      -0.1963
     86  CA         8.4240  -11.8940   15.7190 C.3    77  LEU77       0.1728
     87  C          7.9360  -12.2180   14.3100 C.2    77  LEU77       0.2616
     88  O          8.7270  -12.2740   13.3750 O.2    77  LEU77      -0.2715
     89  CB         8.3020  -10.3920   15.9940 C.3    77  LEU77       0.0311
     90  CG         8.1550  -10.0960   17.4930 C.3    77  LEU77       0.0022
     91  CD1        9.5720   -9.9920   18.2540 C.3    77  LEU77       0.0001
     92  CD2        7.3230   -8.8500   17.7290 C.3    77  LEU77       0.0001
     93  N          6.6390  -12.4680   14.1680 N.am   78  HIS78      -0.1959
     94  CA         6.1730  -13.1240   12.9570 C.3    78  HIS78       0.1787
     95  C          5.7260  -12.1660   11.8550 C.2    78  HIS78       0.2620
     96  O          5.5510  -12.6100   10.7290 O.2    78  HIS78      -0.2715
     97  CB         5.0120  -14.0750   13.2680 C.3    78  HIS78       0.0785
     98  CG         5.3920  -15.3340   13.9950 C.ar   78  HIS78       0.0821
     99  ND1        5.5980  -15.3780   15.3640 N.ar   78  HIS78      -0.2267
    100  CD2        5.5030  -16.6180   13.5520 C.ar   78  HIS78       0.1154
    101  CE1        5.8480  -16.6260   15.7300 C.ar   78  HIS78       0.1986
    102  NE2        5.8110  -17.3990   14.6500 N.ar   78  HIS78      -0.2212
    103  N          5.5750  -10.8700   12.1470 N.am   79  GLN79      -0.1963
    104  CA         4.9540   -9.9660   11.1750 C.3    79  GLN79       0.1733
    105  C          5.5330   -8.5710   11.3210 C.2    79  GLN79       0.2616
    106  O          5.8570   -8.1720   12.4040 O.2    79  GLN79      -0.2715
    107  CB         3.4600   -9.7860   11.4180 C.3    79  GLN79       0.0408
    108  CG         2.5100  -10.7970   10.9780 C.3    79  GLN79       0.0908
    109  CD         1.5420  -10.3290    9.8440 C.2    79  GLN79       0.2608
    110  OE1        0.9260   -9.2300    9.8660 O.2    79  GLN79      -0.2717
    111  NE2        1.3630  -11.2200    8.8940 N.am   79  GLN79      -0.0878
    112  N          5.6140   -7.8180   10.2340 N.am   80  ASP80      -0.1971
    113  CA         6.0060   -6.4040   10.3660 C.3    80  ASP80       0.1709
    114  C          4.8370   -5.4940   10.0320 C.2    80  ASP80       0.2293
    115  O          3.8290   -5.9540    9.4490 O.2    80  ASP80      -0.2864
    116  CB         7.2320   -6.0780    9.5270 C.3    80  ASP80       0.1436
    117  CG         6.9610   -6.1320    7.9980 C.2    80  ASP80       0.3671
    118  OD1        5.8960   -5.6860    7.4920 O.co2  80  ASP80      -0.2456
    119  OD2        7.7950   -6.6180    7.2330 O.co2  80  ASP80      -0.2456
    120  N          3.5720   -5.3370    6.1200 N.3    83  LYS83      -0.1245
    121  CA         2.6810   -6.4500    5.8190 C.3    83  LYS83       0.1561
    122  C          1.3090   -6.2850    6.4500 C.2    83  LYS83       0.2260
    123  O          0.2970   -6.5620    5.8000 O.2    83  LYS83      -0.2867
    124  CB         3.2990   -7.7840    6.2890 C.3    83  LYS83       0.0271
    125  CG         2.3910   -8.9800    6.0020 C.3    83  LYS83       0.0035
    126  CD         3.1690  -10.1970    5.4710 C.3    83  LYS83       0.0206
    127  CE         2.3290  -11.4540    5.4690 C.3    83  LYS83       0.1093
    128  NZ         3.2170  -12.6730    5.5310 N.3    83  LYS83      -0.1314
    129  N         11.1580    2.4940   10.2970 N.3   123  LYS123     -0.1245
    130  CA        10.4130    2.2180    9.0700 C.3   123  LYS123      0.1561
    131  C          9.4940    1.0510    9.3360 C.2   123  LYS123      0.2260
    132  O          9.8090    0.2290   10.1900 O.2   123  LYS123     -0.2867
    133  CB        11.3370    1.9120    7.8630 C.3   123  LYS123      0.0271
    134  CG        12.1680    0.6160    7.8650 C.3   123  LYS123      0.0035
    135  CD        13.5040    1.0140    7.1660 C.3   123  LYS123      0.0206
    136  CE        14.4070   -0.1450    6.8720 C.3   123  LYS123      0.1093
    137  NZ        15.6400    0.4270    6.2340 N.3   123  LYS123     -0.1314
    138  N          9.0960   -1.6670    8.0920 N.3   125  GLN125     -0.1231
    139  CA         9.7370   -2.9850    8.0270 C.3   125  GLN125      0.1698
    140  C         10.4970   -3.3930    9.2900 C.2   125  GLN125      0.2592
    141  O         10.7420   -4.5770    9.5240 O.2   125  GLN125     -0.2718
    142  CB        10.6780   -3.0610    6.8230 C.3   125  GLN125      0.0381
    143  CG        10.0460   -3.6850    5.6060 C.3   125  GLN125      0.0905
    144  CD        10.8690   -3.4710    4.3620 C.2   125  GLN125      0.2608
    145  OE1       12.1270   -3.5150    4.3970 O.2   125  GLN125     -0.2717
    146  NE2       10.1780   -3.2280    3.2460 N.am  125  GLN125     -0.0878
    147  N         10.8830   -2.4270   10.1020 N.am  126  ASN126     -0.1974
    148  CA        11.4890   -2.7890   11.3710 C.3   126  ASN126      0.1688
    149  C         10.6010   -2.5550   12.6310 C.2   126  ASN126      0.2292
    150  O         11.0870   -2.5540   13.7910 O.2   126  ASN126     -0.2864
    151  CB        12.9540   -2.2670   11.4400 C.3   126  ASN126      0.1181
    152  CG        13.0610   -0.7580   11.3490 C.2   126  ASN126      0.2629
    153  OD1       12.1880   -0.0140   11.8460 O.2   126  ASN126     -0.2716
    154  ND2       14.1610   -0.2840   10.7430 N.am  126  ASN126     -0.0877
    155  N          7.7640   -4.5000   14.5240 N.3   128  LEU128     -0.1245
    156  CA         7.3250   -5.8930   14.4160 C.3   128  LEU128      0.1561
    157  C          6.2220   -6.1860   15.3850 C.2   128  LEU128      0.2260
    158  O          6.2540   -5.6740   16.5120 O.2   128  LEU128     -0.2867
    159  CB         8.5250   -6.8430   14.6610 C.3   128  LEU128      0.0270
    160  CG         9.7780   -6.5650   13.8170 C.3   128  LEU128      0.0019
    161  CD1       10.8310   -7.6610   14.1140 C.3   128  LEU128      0.0001
    162  CD2        9.4370   -6.5980   12.3340 C.3   128  LEU128      0.0001
    163  N         12.7370   -3.1420   16.0280 N.3   138  ALA138     -0.1231
    164  CA        13.8800   -3.9720   15.6370 C.3   138  ALA138      0.1694
    165  C         15.0630   -3.0980   15.1910 C.2   138  ALA138      0.2592
    166  O         14.8730   -1.9980   14.6370 O.2   138  ALA138     -0.2718
    167  CB        13.4950   -4.8830   14.5090 C.3   138  ALA138      0.0304
    168  N         16.2670   -3.6160   15.3710 N.am  139  ASP139     -0.1974
    169  CA        17.5150   -2.9520   14.9260 C.3   139  ASP139      0.1709
    170  C         17.8520   -1.6540   15.5920 C.2   139  ASP139      0.2293
    171  O         18.6110   -0.8520   15.0410 O.2   139  ASP139     -0.2864
    172  CB        17.5140   -2.7640   13.4150 C.3   139  ASP139      0.1436
    173  CG        17.5710   -4.0500   12.7160 C.2   139  ASP139      0.3671
    174  OD1       17.6710   -5.0880   13.4370 O.co2 139  ASP139     -0.2456
    175  OD2       17.5050   -4.1370   11.4700 O.co2 139  ASP139     -0.2456
@<TRIPOS>BOND
     1    21    19   ar
     2    19    18    1
     3    19    20   ar
     4    18    17    1
     5    17    14    1
     6    13    14    1
     7    13    11   am
     8    14    15    1
     9   146   144   am
    10    16    15    2
    11    10    11    1
    12    10     9    1
    13    11    12    2
    14    15    22   am
    15   144   145    2
    16   144   143    1
    17     4     3    2
    18    25    24    2
    19     9     3   am
    20     3     2    1
    21    22    23    1
    22   127   126    1
    23   127   128    1
    24   126   125    1
    25    24    23    1
    26   143   142    1
    27   123   122    2
    28   121   120    1
    29   121   124    1
    30   121   122    1
    31     1     2    1
    32   125   124    1
    33     2     5    1
    34   137   136    1
    35    26    27    1
    36   142   139    1
    37   136   135    1
    38    29    28    2
    39   135   134    1
    40   119   117   ar
    41   118   117   ar
    42     5     7    1
    43     5     6    1
    44    28    27    1
    45   133   134    1
    46   133   130    1
    47   117   116    1
    48   139   138    1
    49   139   140    1
    50    27    30    1
    51    30    32    1
    52    30    31    1
    53     6     8    1
    54   111   109   am
    55   130   131    1
    56   130   129    1
    57   140   141    2
    58   140   147   am
    59   131   132    2
    60   115   114    2
    61   116   113    1
    62   109   110    2
    63   109   108    1
    64   114   113    1
    65   147   148    1
    66   112   113    1
    67   112   105   am
    68    96    95    2
    69   154   152   am
    70   108   107    1
    71    40    39    1
    72    40    41    2
    73   104   105    1
    74   104   107    1
    75   104   103    1
    76    39    42    1
    77    39    38    1
    78   105   106    2
    79   152   151    1
    80   152   153    2
    81   148   151    1
    82   148   149    1
    83   175   173   ar
    84    42    43    1
    85    95   103   am
    86    95    94    1
    87    43    44    1
    88    46    45    1
    89   162   160    1
    90    44    45    1
    91    84    83   ar
    92    84    82   ar
    93    83    81   ar
    94   149   150    2
    95   173   172    1
    96   173   174   ar
    97    94    97    1
    98    94    93    1
    99    97    98    1
   100    88    87    2
   101   172   169    1
   102   100    98   ar
   103   100   102   ar
   104    82    80   ar
   105    81    79   ar
   106   160   161    1
   107   160   159    1
   108    37    34    1
   109    34    35    1
   110    34    33    1
   111    35    36    2
   112    98    99   ar
   113    93    87   am
   114    87    86    1
   115   156   155    1
   116   156   159    1
   117   156   157    1
   118   167   164    1
   119   166   165    2
   120   102   101   ar
   121    80    79   ar
   122    79    78    1
   123   169   168    1
   124   169   170    1
   125   171   170    2
   126   165   168   am
   127   165   164    1
   128    99   101   ar
   129   157   158    2
   130   164   163    1
   131    86    85    1
   132    86    89    1
   133    85    76   am
   134    63    61   ar
   135    63    64   ar
   136    89    90    1
   137    61    59   ar
   138    78    75    1
   139    75    76    1
   140    75    74    1
   141    76    77    2
   142    64    62   ar
   143    59    58    1
   144    59    60   ar
   145    58    55    1
   146    90    92    1
   147    90    91    1
   148    54    55    1
   149    68    67    2
   150    53    51    1
   151    62    60   ar
   152    57    56    2
   153    74    67   am
   154    55    56    1
   155    52    51    1
   156    67    66    1
   157    51    48    1
   158    56    65   am
   159    65    66    1
   160    66    69    1
   161    48    47    1
   162    48    49    1
   163    69    70    1
   164    50    49    2
   165    70    71    1
   166    71    72   ar
   167    71    73   ar
