@<TRIPOS>MOLECULE
tmp/2c6nA03.pdb
 236 232 0 0 0
SMALL
GASTEIGER

@<TRIPOS>ATOM
      1  N        -29.1370  -17.0760  -19.7940 N.3    43  ASP43      -0.1239
      2  CA       -29.2010  -16.3390  -21.0480 C.3    43  ASP43       0.1674
      3  C        -30.4570  -15.4770  -21.1090 C.2    43  ASP43       0.2266
      4  O        -30.4320  -14.3640  -21.6340 O.2    43  ASP43      -0.2867
      5  CB       -29.1520  -17.3010  -22.2330 C.3    43  ASP43       0.1410
      6  CG       -27.8000  -18.0020  -22.3680 C.2    43  ASP43       0.3668
      7  OD1      -27.5690  -18.6840  -23.3910 O.co2  43  ASP43      -0.2456
      8  OD2      -26.9610  -17.8770  -21.4540 O.co2  43  ASP43      -0.2456
      9  N        -19.2180   -7.2140  -38.8010 N.3   257  TRP257     -0.1241
     10  CA       -18.0970   -8.0590  -39.1700 C.3   257  TRP257      0.1605
     11  C        -17.8840   -8.1340  -40.6780 C.2   257  TRP257      0.2264
     12  O        -16.9410   -8.7680  -41.1490 O.2   257  TRP257     -0.2867
     13  CB       -18.3230   -9.4520  -38.5830 C.3   257  TRP257      0.0550
     14  CG       -18.6070   -9.3640  -37.1300 C.ar  257  TRP257      0.0003
     15  CD1      -17.7020   -9.1310  -36.1390 C.ar  257  TRP257      0.0946
     16  CD2      -19.8960   -9.3380  -36.5110 C.ar  257  TRP257      0.0152
     17  NE1      -18.3450   -8.9480  -34.9440 N.ar  257  TRP257     -0.2442
     18  CE2      -19.6940   -9.0690  -35.1400 C.ar  257  TRP257      0.0810
     19  CE3      -21.2040   -9.5050  -36.9820 C.ar  257  TRP257      0.0012
     20  CZ2      -20.7520   -8.9630  -34.2300 C.ar  257  TRP257      0.0191
     21  CZ3      -22.2580   -9.3970  -36.0790 C.ar  257  TRP257      0.0001
     22  CH2      -22.0220   -9.1280  -34.7150 C.ar  257  TRP257      0.0015
     23  N        -19.7010   -9.6670  -42.6780 N.3   259  GLN259     -0.1245
     24  CA       -19.9860  -11.0530  -43.0700 C.3   259  GLN259      0.1566
     25  C        -21.1120  -11.2080  -44.0950 C.2   259  GLN259      0.2260
     26  O        -21.2020  -12.2390  -44.7640 O.2   259  GLN259     -0.2867
     27  CB       -20.2850  -11.9210  -41.8390 C.3   259  GLN259      0.0367
     28  CG       -21.4260  -11.4390  -40.9720 C.3   259  GLN259      0.0905
     29  CD       -21.7320  -12.4110  -39.8700 C.2   259  GLN259      0.2608
     30  OE1      -20.8610  -12.7630  -39.0720 O.2   259  GLN259     -0.2717
     31  NE2      -22.9760  -12.8600  -39.8160 N.am  259  GLN259     -0.0878
     32  N        -28.4410  -12.7610  -28.8430 N.3   331  HIS331     -0.1226
     33  CA       -28.2100  -13.5860  -30.0260 C.3   331  HIS331      0.1752
     34  C        -29.3900  -14.4930  -30.3120 C.2   331  HIS331      0.2596
     35  O        -30.2030  -14.7550  -29.4340 O.2   331  HIS331     -0.2718
     36  CB       -26.9730  -14.4500  -29.8380 C.3   331  HIS331      0.0759
     37  CG       -26.1760  -14.6450  -31.0900 C.ar  331  HIS331      0.0818
     38  ND1      -26.0070  -13.6480  -32.0270 N.ar  331  HIS331     -0.2268
     39  CD2      -25.3700  -15.6610  -31.4780 C.ar  331  HIS331      0.1154
     40  CE1      -25.1170  -14.0330  -32.9230 C.ar  331  HIS331      0.1986
     41  NE2      -24.7110  -15.2510  -32.6100 N.ar  331  HIS331     -0.2212
     42  N        -29.4860  -14.9630  -31.5470 N.am  332  ALA332     -0.1966
     43  CA       -30.5570  -15.8700  -31.9110 C.3   332  ALA332      0.1728
     44  C        -29.9670  -17.2570  -31.7430 C.2   332  ALA332      0.2617
     45  O        -28.8410  -17.4970  -32.1670 O.2   332  ALA332     -0.2715
     46  CB       -30.9780  -15.6430  -33.3530 C.3   332  ALA332      0.0334
     47  N        -30.7040  -18.1550  -31.0960 N.am  333  SER333     -0.1936
     48  CA       -30.2350  -19.5260  -30.8990 C.3   333  SER333      0.2055
     49  C        -31.4260  -20.4590  -30.6670 C.2   333  SER333      0.2643
     50  O        -32.5300  -20.0010  -30.3550 O.2   333  SER333     -0.2714
     51  CB       -29.2580  -19.5960  -29.7160 C.3   333  SER333      0.2130
     52  OG       -29.8370  -19.0400  -28.5460 O.3   333  SER333     -0.2179
     53  N        -31.2010  -21.7620  -30.8440 N.am  334  ALA334     -0.1963
     54  CA       -32.2490  -22.7650  -30.6560 C.3   334  ALA334      0.1728
     55  C        -31.8480  -23.7590  -29.5750 C.2   334  ALA334      0.2616
     56  O        -30.7220  -24.2720  -29.5670 O.2   334  ALA334     -0.2715
     57  CB       -32.5030  -23.4880  -31.9460 C.3   334  ALA334      0.0334
     58  N        -32.7890  -24.0590  -28.6850 N.am  335  TRP335     -0.1974
     59  CA       -32.5120  -24.9440  -27.5660 C.3   335  TRP335      0.1640
     60  C        -33.1870  -26.3030  -27.5500 C.2   335  TRP335      0.2290
     61  O        -34.3970  -26.4190  -27.7360 O.2   335  TRP335     -0.2864
     62  CB       -32.8410  -24.2150  -26.2690 C.3   335  TRP335      0.0576
     63  CG       -32.1160  -22.9240  -26.1310 C.ar  335  TRP335      0.0006
     64  CD1      -32.1980  -21.8400  -26.9620 C.ar  335  TRP335      0.0946
     65  CD2      -31.1790  -22.5770  -25.1130 C.ar  335  TRP335      0.0152
     66  NE1      -31.3630  -20.8410  -26.5250 N.ar  335  TRP335     -0.2442
     67  CE2      -30.7210  -21.2700  -25.3920 C.ar  335  TRP335      0.0810
     68  CE3      -30.6690  -23.2460  -23.9960 C.ar  335  TRP335      0.0012
     69  CZ2      -29.7880  -20.6160  -24.5870 C.ar  335  TRP335      0.0191
     70  CZ3      -29.7410  -22.5950  -23.1980 C.ar  335  TRP335      0.0001
     71  CH2      -29.3070  -21.2970  -23.5000 C.ar  335  TRP335      0.0015
     72  N        -34.4920  -18.6410  -28.5420 N.3   346  LYS346     -0.1245
     73  CA       -34.1430  -17.4480  -27.8060 C.3   346  LYS346      0.1561
     74  C        -33.6120  -16.4470  -28.7880 C.2   346  LYS346      0.2260
     75  O        -32.6280  -16.7100  -29.4700 O.2   346  LYS346     -0.2867
     76  CB       -33.0630  -17.8000  -26.8240 C.3   346  LYS346      0.0271
     77  CG       -32.9230  -16.8210  -25.7330 C.3   346  LYS346      0.0035
     78  CD       -31.5410  -16.9440  -25.1950 C.3   346  LYS346      0.0206
     79  CE       -30.6780  -15.9030  -25.8470 C.3   346  LYS346      0.1093
     80  NZ       -29.3580  -16.4500  -26.2170 N.3   346  LYS346     -0.1314
     81  N        -33.9520  -10.5430  -40.5110 N.3   355  GLN355     -0.1245
     82  CA       -34.1920  -11.3900  -39.3800 C.3   355  GLN355      0.1566
     83  C        -35.3320  -12.3720  -39.6050 C.2   355  GLN355      0.2260
     84  O        -35.4430  -13.3780  -38.8920 O.2   355  GLN355     -0.2867
     85  CB       -34.4130  -10.5580  -38.1330 C.3   355  GLN355      0.0367
     86  CG       -33.7980  -11.2710  -36.9530 C.3   355  GLN355      0.0905
     87  CD       -33.5120  -10.3750  -35.7830 C.2   355  GLN355      0.2608
     88  OE1      -34.3140   -9.5000  -35.4470 O.2   355  GLN355     -0.2717
     89  NE2      -32.3580  -10.5980  -35.1330 N.am  355  GLN355     -0.0878
     90  N        -33.6060  -15.3650  -40.3380 N.3   358  THR358     -0.1218
     91  CA       -32.9110  -15.8950  -39.1690 C.3   358  THR358      0.1862
     92  C        -33.9200  -16.7110  -38.3770 C.2   358  THR358      0.2287
     93  O        -33.5870  -17.7340  -37.7850 O.2   358  THR358     -0.2866
     94  CB       -32.3460  -14.7740  -38.2920 C.3   358  THR358      0.1770
     95  OG1      -31.1860  -14.2130  -38.9250 O.3   358  THR358     -0.2211
     96  CG2      -31.9640  -15.3210  -36.9320 C.3   358  THR358      0.0375
     97  N        -34.1050  -19.8670  -40.0620 N.3   361  HIS361     -0.1226
     98  CA       -32.8510  -20.5370  -39.7430 C.3   361  HIS361      0.1752
     99  C        -32.9640  -21.2900  -38.4490 C.2   361  HIS361      0.2595
    100  O        -32.5900  -22.4670  -38.3680 O.2   361  HIS361     -0.2718
    101  CB       -31.7120  -19.5290  -39.6080 C.3   361  HIS361      0.0759
    102  CG       -30.4530  -20.1160  -39.0440 C.ar  361  HIS361      0.0818
    103  ND1      -29.6110  -20.9320  -39.7720 N.ar  361  HIS361     -0.2268
    104  CD2      -29.9020  -20.0170  -37.8130 C.ar  361  HIS361      0.1154
    105  CE1      -28.5960  -21.3080  -39.0130 C.ar  361  HIS361      0.1986
    106  NE2      -28.7490  -20.7660  -37.8190 N.ar  361  HIS361     -0.2212
    107  N        -33.4740  -20.5860  -37.4420 N.am  362  GLU362     -0.1979
    108  CA       -33.6420  -21.1360  -36.1060 C.3   362  GLU362      0.1602
    109  C        -34.6840  -22.2370  -36.0880 C.2   362  GLU362      0.2287
    110  O        -34.4350  -23.3120  -35.5290 O.2   362  GLU362     -0.2864
    111  CB       -34.0200  -20.0340  -35.1130 C.3   362  GLU362      0.0415
    112  CG       -32.9360  -18.9570  -34.8860 C.3   362  GLU362      0.1163
    113  CD       -31.5640  -19.5310  -34.5520 C.2   362  GLU362      0.3649
    114  OE1      -31.4890  -20.5850  -33.8880 O.co2 362  GLU362     -0.2457
    115  OE2      -30.5520  -18.9200  -34.9410 O.co2 362  GLU362     -0.2457
    116  N        -33.5070  -25.5560  -36.7410 N.3   365  HIS365     -0.1241
    117  CA       -32.8630  -26.3100  -35.6630 C.3   365  HIS365      0.1621
    118  C        -33.9250  -27.0250  -34.8360 C.2   365  HIS365      0.2264
    119  O        -33.7920  -28.2110  -34.5290 O.2   365  HIS365     -0.2867
    120  CB       -32.0730  -25.3690  -34.7620 C.3   365  HIS365      0.0745
    121  CG       -30.8010  -24.8760  -35.3710 C.ar  365  HIS365      0.0817
    122  ND1      -29.7840  -25.7260  -35.7510 N.ar  365  HIS365     -0.2268
    123  CD2      -30.3610  -23.6210  -35.6310 C.ar  365  HIS365      0.1154
    124  CE1      -28.7710  -25.0170  -36.2160 C.ar  365  HIS365      0.1986
    125  NE2      -29.0950  -23.7370  -36.1540 N.ar  365  HIS365     -0.2212
    126  N        -27.0130  -26.4280  -39.5020 N.3   389  GLU389     -0.1245
    127  CA       -27.0800  -25.0230  -39.8880 C.3   389  GLU389      0.1567
    128  C        -27.7730  -24.8330  -41.2430 C.2   389  GLU389      0.2260
    129  O        -28.2270  -23.7310  -41.5750 O.2   389  GLU389     -0.2867
    130  CB       -25.6720  -24.4140  -39.9270 C.3   389  GLU389      0.0388
    131  CG       -24.8850  -24.4660  -38.6030 C.3   389  GLU389      0.1160
    132  CD       -25.6640  -23.9240  -37.3850 C.2   389  GLU389      0.3649
    133  OE1      -26.4230  -22.9460  -37.5280 O.co2 389  GLU389     -0.2457
    134  OE2      -25.5080  -24.4660  -36.2710 O.co2 389  GLU389     -0.2457
    135  N        -20.4250  -13.9370  -47.6670 N.3   435  PHE435     -0.1241
    136  CA       -20.1550  -14.6460  -46.4280 C.3   435  PHE435      0.1605
    137  C        -19.0530  -15.7020  -46.5770 C.2   435  PHE435      0.2264
    138  O        -18.1910  -15.8490  -45.7160 O.2   435  PHE435     -0.2867
    139  CB       -21.4480  -15.3060  -45.9340 C.3   435  PHE435      0.0534
    140  CG       -21.3140  -15.9830  -44.5990 C.ar  435  PHE435     -0.0203
    141  CD1      -21.4210  -15.2560  -43.4180 C.ar  435  PHE435     -0.0042
    142  CD2      -21.0190  -17.3370  -44.5240 C.ar  435  PHE435     -0.0042
    143  CE1      -21.2290  -15.8700  -42.1820 C.ar  435  PHE435     -0.0003
    144  CE2      -20.8240  -17.9580  -43.2970 C.ar  435  PHE435     -0.0003
    145  CZ       -20.9280  -17.2210  -42.1200 C.ar  435  PHE435     -0.0000
    146  N        -16.6120  -11.0740  -32.1050 N.3   489  LYS489     -0.1231
    147  CA       -17.6040  -11.8400  -32.8570 C.3   489  LYS489      0.1693
    148  C        -18.2550  -12.7970  -31.8830 C.2   489  LYS489      0.2592
    149  O        -17.5570  -13.6410  -31.3240 O.2   489  LYS489     -0.2718
    150  CB       -16.9420  -12.6400  -33.9870 C.3   489  LYS489      0.0285
    151  CG       -17.8900  -13.5550  -34.7970 C.3   489  LYS489      0.0035
    152  CD       -19.0360  -12.7600  -35.3750 C.3   489  LYS489      0.0206
    153  CE       -20.0900  -13.6900  -35.9300 C.3   489  LYS489      0.1093
    154  NZ       -21.3450  -12.9290  -36.2310 N.3   489  LYS489     -0.1314
    155  N        -19.5670  -12.6480  -31.6750 N.am  490  PHE490     -0.1962
    156  CA       -20.3330  -13.5060  -30.7670 C.3   490  PHE490      0.1771
    157  C        -19.8620  -14.9620  -30.6230 C.2   490  PHE490      0.2619
    158  O        -19.9360  -15.5350  -29.5390 O.2   490  PHE490     -0.2715
    159  CB       -21.8050  -13.5680  -31.1810 C.3   490  PHE490      0.0574
    160  CG       -22.5950  -14.5750  -30.3830 C.ar  490  PHE490     -0.0200
    161  CD1      -23.4220  -14.1690  -29.3380 C.ar  490  PHE490     -0.0042
    162  CD2      -22.4810  -15.9460  -30.6490 C.ar  490  PHE490     -0.0042
    163  CE1      -24.1320  -15.1140  -28.5620 C.ar  490  PHE490     -0.0003
    164  CE2      -23.1820  -16.9040  -29.8820 C.ar  490  PHE490     -0.0003
    165  CZ       -24.0110  -16.4830  -28.8380 C.ar  490  PHE490     -0.0000
    166  N        -19.4280  -15.5720  -31.7140 N.am  491  HIS491     -0.1973
    167  CA       -18.9750  -16.9580  -31.6740 C.3   491  HIS491      0.1656
    168  C        -17.6340  -17.3000  -31.0310 C.2   491  HIS491      0.2291
    169  O        -17.4440  -18.4480  -30.6080 O.2   491  HIS491     -0.2864
    170  CB       -18.9770  -17.4950  -33.0770 C.3   491  HIS491      0.0771
    171  CG       -20.3330  -17.5440  -33.6740 C.ar  491  HIS491      0.0820
    172  ND1      -21.0670  -16.4110  -33.9590 N.ar  491  HIS491     -0.2267
    173  CD2      -21.0950  -18.5970  -34.0380 C.ar  491  HIS491      0.1154
    174  CE1      -22.2230  -16.7720  -34.4820 C.ar  491  HIS491      0.1986
    175  NE2      -22.2650  -18.0910  -34.5410 N.ar  491  HIS491     -0.2212
    176  N        -18.2000  -17.1550  -27.0390 N.3   494  ASN494     -0.1240
    177  CA       -19.0590  -18.2420  -26.6000 C.3   494  ASN494      0.1653
    178  C        -18.5560  -19.5870  -27.0930 C.2   494  ASN494      0.2266
    179  O        -19.3000  -20.5650  -27.1720 O.2   494  ASN494     -0.2867
    180  CB       -20.4890  -18.0000  -27.0710 C.3   494  ASN494      0.1155
    181  CG       -21.0980  -16.7490  -26.4510 C.2   494  ASN494      0.2627
    182  OD1      -22.1630  -16.7970  -25.8320 O.2   494  ASN494     -0.2716
    183  ND2      -20.4240  -15.6180  -26.6190 N.am  494  ASN494     -0.0877
    184  N        -17.9500  -21.2630  -30.0360 N.3   496  THR496     -0.1218
    185  CA       -18.7830  -22.0640  -30.9450 C.3   496  THR496      0.1862
    186  C        -17.9540  -22.2310  -32.1720 C.2   496  THR496      0.2287
    187  O        -17.3540  -21.2680  -32.6280 O.2   496  THR496     -0.2866
    188  CB       -20.0970  -21.3530  -31.3410 C.3   496  THR496      0.1770
    189  OG1      -21.1910  -21.7830  -30.5080 O.3   496  THR496     -0.2211
    190  CG2      -20.4310  -21.6680  -32.7880 C.3   496  THR496      0.0375
    191  N        -16.9330  -22.6160  -36.0570 N.3   498  TYR498     -0.1241
    192  CA       -17.4830  -21.8450  -37.1740 C.3   498  TYR498      0.1605
    193  C        -17.4440  -22.4950  -38.5650 C.2   498  TYR498      0.2264
    194  O        -18.3310  -22.2460  -39.3870 O.2   498  TYR498     -0.2867
    195  CB       -16.7930  -20.4800  -37.2300 C.3   498  TYR498      0.0534
    196  CG       -17.6860  -19.3470  -37.6680 C.ar  498  TYR498     -0.0201
    197  CD1      -18.5650  -18.7460  -36.7850 C.ar  498  TYR498     -0.0009
    198  CD2      -17.6420  -18.8640  -38.9680 C.ar  498  TYR498     -0.0009
    199  CE1      -19.3810  -17.6860  -37.1810 C.ar  498  TYR498      0.0417
    200  CE2      -18.4620  -17.7960  -39.3760 C.ar  498  TYR498      0.0417
    201  CZ       -19.3230  -17.2210  -38.4680 C.ar  498  TYR498      0.1957
    202  OH       -20.1370  -16.1820  -38.8220 O.3   498  TYR498     -0.2866
    203  N        -18.5810  -24.6940  -39.8130 N.3   500  ARG500     -0.1231
    204  CA       -19.7990  -25.3930  -40.1630 C.3   500  ARG500      0.1694
    205  C        -20.7490  -24.4670  -40.8930 C.2   500  ARG500      0.2592
    206  O        -21.6960  -24.9190  -41.5290 O.2   500  ARG500     -0.2718
    207  CB       -20.4350  -25.8890  -38.8890 C.3   500  ARG500      0.0321
    208  CG       -20.2480  -24.8390  -37.8510 C.3   500  ARG500      0.0489
    209  CD       -21.2940  -24.8730  -36.8240 C.3   500  ARG500      0.2205
    210  NE       -20.9490  -25.8470  -35.8080 N.pl3 500  ARG500     -0.0865
    211  CZ       -21.5760  -25.9530  -34.6490 C.cat 500  ARG500      0.5346
    212  NH1      -22.5920  -25.1410  -34.3550 N.pl3 500  ARG500      0.1354
    213  NH2      -21.1630  -26.8620  -33.7840 N.pl3 500  ARG500      0.1354
    214  N        -20.5140  -23.1650  -40.7910 N.am  501  TYR501     -0.1976
    215  CA       -21.3760  -22.2230  -41.4920 C.3   501  TYR501      0.1639
    216  C        -20.9580  -22.1580  -42.9530 C.2   501  TYR501      0.2290
    217  O        -21.7300  -21.7510  -43.8250 O.2   501  TYR501     -0.2864
    218  CB       -21.3030  -20.8460  -40.8430 C.3   501  TYR501      0.0560
    219  CG       -21.9380  -20.8200  -39.4790 C.ar  501  TYR501     -0.0198
    220  CD1      -21.1680  -20.6460  -38.3280 C.ar  501  TYR501     -0.0009
    221  CD2      -23.3110  -20.9880  -39.3340 C.ar  501  TYR501     -0.0009
    222  CE1      -21.7580  -20.6400  -37.0540 C.ar  501  TYR501      0.0417
    223  CE2      -23.9110  -20.9850  -38.0740 C.ar  501  TYR501      0.0417
    224  CZ       -23.1310  -20.8120  -36.9340 C.ar  501  TYR501      0.1957
    225  OH       -23.7260  -20.8240  -35.6870 O.3   501  TYR501     -0.2866
    226  N        -23.3120  -23.1570  -45.9490 N.3   505  PHE505     -0.1241
    227  CA       -23.6150  -22.3330  -47.1070 C.3   505  PHE505      0.1605
    228  C        -23.3920  -23.0300  -48.4610 C.2   505  PHE505      0.2264
    229  O        -24.0690  -22.7460  -49.4600 O.2   505  PHE505     -0.2867
    230  CB       -22.8200  -21.0270  -47.0110 C.3   505  PHE505      0.0534
    231  CG       -23.5270  -19.9440  -46.2330 C.ar  505  PHE505     -0.0203
    232  CD1      -24.0120  -20.1920  -44.9550 C.ar  505  PHE505     -0.0042
    233  CD2      -23.7360  -18.6840  -46.7940 C.ar  505  PHE505     -0.0042
    234  CE1      -24.7010  -19.2010  -44.2480 C.ar  505  PHE505     -0.0003
    235  CE2      -24.4210  -17.6880  -46.0960 C.ar  505  PHE505     -0.0003
    236  CZ       -24.9060  -17.9470  -44.8220 C.ar  505  PHE505     -0.0000
@<TRIPOS>BOND
     1   229   228    2
     2   228   227    1
     3   135   136    1
     4   227   230    1
     5   227   226    1
     6   230   231    1
     7   233   231   ar
     8   233   235   ar
     9   137   136    1
    10   137   138    2
    11   136   139    1
    12   231   232   ar
    13   235   236   ar
    14   139   140    1
    15   232   234   ar
    16   236   234   ar
    17    26    25    2
    18   140   142   ar
    19   140   141   ar
    20   142   144   ar
    21    25    24    1
    22   217   216    2
    23   141   143   ar
    24   144   145   ar
    25    24    23    1
    26    24    27    1
    27   216   215    1
    28   143   145   ar
    29    27    28    1
    30   129   128    2
    31   206   205    2
    32   215   218    1
    33   215   214    1
    34   128   127    1
    35    12    11    2
    36    28    29    1
    37   205   214   am
    38   205   204    1
    39   218   219    1
    40    11    10    1
    41    81    82    1
    42    90    91    1
    43   204   203    1
    44   204   207    1
    45    97    98    1
    46   130   127    1
    47   130   131    1
    48   127   126    1
    49    29    31   am
    50    29    30    2
    51   103   102   ar
    52   103   105   ar
    53    98   101    1
    54    98    99    1
    55   101   102    1
    56    83    82    1
    57    83    84    2
    58   219   221   ar
    59   219   220   ar
    60   194   193    2
    61    82    85    1
    62   200   198   ar
    63   200   201   ar
    64   221   223   ar
    65    10     9    1
    66    10    13    1
    67    91    92    1
    68    91    94    1
    69   102   104   ar
    70   105   106   ar
    71   198   196   ar
    72    95    94    1
    73   207   208    1
    74   202   201    1
    75   131   132    1
    76    13    14    1
    77   193   192    1
    78   201   199   ar
    79    99   100    2
    80    99   107   am
    81    92    93    2
    82   220   222   ar
    83    94    96    1
    84    85    86    1
    85   223   224   ar
    86   208   209    1
    87   106   104   ar
    88   196   195    1
    89   196   197   ar
    90   133   132   ar
    91   107   108    1
    92   132   134   ar
    93   195   192    1
    94   199   197   ar
    95   192   191    1
    96    14    16   ar
    97    14    15   ar
    98   222   224   ar
    99    19    16   ar
   100    19    21   ar
   101    86    87    1
   102   224   225    1
   103   209   210    1
   104   116   117    1
   105    16    18   ar
   106   154   153    1
   107   124   125   ar
   108   124   122   ar
   109   125   123   ar
   110    15    17   ar
   111   108   109    1
   112   108   111    1
   113   109   110    2
   114    21    22   ar
   115   153   152    1
   116   210   211    2
   117    87    88    2
   118    87    89   am
   119   122   121   ar
   120   117   118    1
   121   117   120    1
   122   123   121   ar
   123   152   151    1
   124   121   120    1
   125    18    17   ar
   126    18    20   ar
   127   111   112    1
   128   115   113   ar
   129   112   113    1
   130   118   119    2
   131   151   150    1
   132    22    20   ar
   133   211   212    1
   134   211   213    1
   135   113   114   ar
   136   175   174   ar
   137   175   173   ar
   138   174   172   ar
   139   173   171   ar
   140   150   147    1
   141   172   171   ar
   142   171   170    1
   143    46    43    1
   144   170   167    1
   145    40    41   ar
   146    40    38   ar
   147   147   146    1
   148   147   148    1
   149   190   188    1
   150   187   186    2
   151    41    39   ar
   152   186   185    1
   153    45    44    2
   154    38    37   ar
   155    57    54    1
   156    43    44    1
   157    43    42    1
   158   148   155   am
   159   148   149    2
   160    44    47   am
   161   166   167    1
   162   166   157   am
   163   155   156    1
   164   167   168    1
   165    42    34   am
   166    39    37   ar
   167   188   185    1
   168   188   189    1
   169   159   156    1
   170   159   160    1
   171    47    48    1
   172    37    36    1
   173   168   169    2
   174   185   184    1
   175    48    49    1
   176    48    51    1
   177    53    49   am
   178    53    54    1
   179   156   157    1
   180    49    50    2
   181    54    55    1
   182   162   160   ar
   183   162   164   ar
   184   157   158    2
   185   160   161   ar
   186    34    33    1
   187    34    35    2
   188    33    36    1
   189    33    32    1
   190   164   165   ar
   191    51    52    1
   192    55    56    2
   193    55    58   am
   194    75    74    2
   195   161   163   ar
   196   165   163   ar
   197    74    73    1
   198    58    59    1
   199    72    73    1
   200    73    76    1
   201    61    60    2
   202    59    60    1
   203    59    62    1
   204   179   178    2
   205   178   177    1
   206   180   177    1
   207   180   181    1
   208   176   177    1
   209    64    66   ar
   210    64    63   ar
   211    76    77    1
   212   183   181   am
   213    66    67   ar
   214   181   182    2
   215    62    63    1
   216    80    79    1
   217    63    65   ar
   218    79    78    1
   219    77    78    1
   220    67    65   ar
   221    67    69   ar
   222    65    68   ar
   223    69    71   ar
   224    68    70   ar
   225    71    70   ar
   226     7     6   ar
   227     6     5    1
   228     6     8   ar
   229     5     2    1
   230     4     3    2
   231     3     2    1
   232     2     1    1
