@<TRIPOS>MOLECULE
tmp/2c6qB02.pdb
 194 180 0 0 0
SMALL
GASTEIGER

@<TRIPOS>ATOM
      1  N        -10.3160   27.2730   19.8870 N.3    46  ASN46      -0.1240
      2  CA       -11.6270   27.8210   19.7330 C.3    46  ASN46       0.1653
      3  C        -12.3700   27.4030   18.4670 C.2    46  ASN46       0.2266
      4  O        -13.1950   28.1470   17.9440 O.2    46  ASN46      -0.2867
      5  CB       -11.5700   29.3560   19.8220 C.3    46  ASN46       0.1155
      6  CG       -10.5730   29.9350   18.8450 C.2    46  ASN46       0.2627
      7  OD1       -9.3970   29.5550   18.8380 O.2    46  ASN46      -0.2716
      8  ND2      -11.0200   30.9070   18.0580 N.am   46  ASN46      -0.0877
      9  N        -16.9620   30.5570   19.0540 N.3    70  LYS70      -0.1245
     10  CA       -17.8030   31.7410   19.0550 C.3    70  LYS70       0.1561
     11  C        -19.2410   31.5250   18.6000 C.2    70  LYS70       0.2260
     12  O        -19.9550   32.4640   18.2840 O.2    70  LYS70      -0.2867
     13  CB       -17.1240   32.8230   18.2310 C.3    70  LYS70       0.0271
     14  CG       -16.9510   32.4880   16.8020 C.3    70  LYS70       0.0035
     15  CD       -16.2770   33.6520   16.1260 C.3    70  LYS70       0.0206
     16  CE       -16.5100   33.6490   14.6710 C.3    70  LYS70       0.1093
     17  NZ       -15.5680   34.6770   14.1090 N.3    70  LYS70      -0.1314
     18  N        -14.0930   37.2820   16.4390 N.3    96  GLY96      -0.1210
     19  CA       -13.4080   37.9350   15.3250 C.3    96  GLY96       0.1956
     20  C        -13.7030   39.4260   15.3110 C.2    96  GLY96       0.2612
     21  O        -14.2110   39.9940   16.3090 O.2    96  GLY96      -0.2717
     22  N        -13.4570   40.0690   14.1720 N.am   97  THR97      -0.1952
     23  CA       -13.4790   41.5440   14.0950 C.3    97  THR97       0.1897
     24  C        -14.7770   42.2510   13.7460 C.2    97  THR97       0.2313
     25  O        -14.8510   43.4720   13.8970 O.2    97  THR97      -0.2863
     26  CB       -12.4600   42.0540   13.0910 C.3    97  THR97       0.1794
     27  OG1      -12.6410   41.3910   11.8380 O.3    97  THR97      -0.2208
     28  CG2      -11.1010   41.7730   13.5920 C.3    97  THR97       0.0378
     29  N         -9.3940   36.2850   17.3220 N.3   121  ASP121     -0.1225
     30  CA        -8.9180   35.2740   16.3990 C.3   121  ASP121      0.1805
     31  C         -9.3660   35.5660   14.9530 C.2   121  ASP121      0.2598
     32  O        -10.5580   35.5310   14.6350 O.2   121  ASP121     -0.2718
     33  CB        -9.5150   33.9190   16.8140 C.3   121  ASP121      0.1424
     34  CG        -9.0920   32.7920   15.8940 C.2   121  ASP121      0.3668
     35  OD1       -7.8780   32.6390   15.6260 O.co2 121  ASP121     -0.2456
     36  OD2       -9.9800   32.0460   15.4020 O.co2 121  ASP121     -0.2456
     37  N         -8.3990   35.8270   14.0850 N.am  122  VAL122     -0.1966
     38  CA        -8.6210   35.9380   12.6400 C.3   122  VAL122      0.1727
     39  C         -7.5480   35.0950   11.9270 C.2   122  VAL122      0.2616
     40  O         -6.5350   34.7260   12.5060 O.2   122  VAL122     -0.2715
     41  CB        -8.5420   37.3980   12.1310 C.3   122  VAL122      0.0290
     42  CG1       -9.6260   38.2600   12.7760 C.3   122  VAL122      0.0023
     43  CG2       -7.2060   38.0000   12.4150 C.3   122  VAL122      0.0023
     44  N         -7.8250   34.7350   10.6810 N.am  123  ALA123     -0.1963
     45  CA        -6.8720   34.0530    9.8300 C.3   123  ALA123      0.1728
     46  C         -5.6770   34.9270    9.5550 C.2   123  ALA123      0.2616
     47  O         -4.5550   34.4270    9.5560 O.2   123  ALA123     -0.2715
     48  CB        -7.5020   33.7090    8.5280 C.3   123  ALA123      0.0334
     49  N         -5.9300   36.2060    9.3250 N.am  124  ASN124     -0.1972
     50  CA        -4.9010   37.1620    8.9380 C.3   124  ASN124      0.1688
     51  C         -4.7180   38.2780    9.9690 C.2   124  ASN124      0.2292
     52  O         -5.3350   39.3700    9.9030 O.2   124  ASN124     -0.2864
     53  CB        -5.2500   37.7210    7.5680 C.3   124  ASN124      0.1181
     54  CG        -4.1880   38.6100    7.0190 C.2   124  ASN124      0.2629
     55  OD1       -3.1020   38.7220    7.5840 O.2   124  ASN124     -0.2716
     56  ND2       -4.4960   39.2630    5.9180 N.am  124  ASN124     -0.0877
     57  N         -3.4510   42.3700    9.2830 N.3   127  SER127     -0.1217
     58  CA        -4.3250   43.4540    8.8700 C.3   127  SER127      0.1889
     59  C         -4.3500   44.6000    9.8670 C.2   127  SER127      0.2288
     60  O         -4.4760   44.3740   11.0680 O.2   127  SER127     -0.2866
     61  CB        -5.7350   42.9340    8.6840 C.3   127  SER127      0.2089
     62  OG        -6.5420   43.9710    8.1710 O.3   127  SER127     -0.2183
     63  N         -6.7570   46.6420   10.1060 N.3   129  HIS129     -0.1241
     64  CA        -8.1100   46.5020   10.6660 C.3   129  HIS129      0.1621
     65  C         -8.1010   45.6780   11.9540 C.2   129  HIS129      0.2264
     66  O         -8.7610   46.0460   12.9140 O.2   129  HIS129     -0.2867
     67  CB        -9.0550   45.8950    9.6380 C.3   129  HIS129      0.0745
     68  CG       -10.4840   45.7990   10.0910 C.ar  129  HIS129      0.0817
     69  ND1      -11.3570   46.8640   10.0490 N.ar  129  HIS129     -0.2268
     70  CD2      -11.1920   44.7560   10.5890 C.ar  129  HIS129      0.1154
     71  CE1      -12.5370   46.4840   10.5100 C.ar  129  HIS129      0.1986
     72  NE2      -12.4600   45.2120   10.8510 N.ar  129  HIS129     -0.2212
     73  N         -4.0390   35.5400   14.1720 N.3   150  ASN150     -0.1240
     74  CA        -2.7040   34.9360   14.1570 C.3   150  ASN150      0.1653
     75  C         -1.7010   35.6100   13.2710 C.2   150  ASN150      0.2266
     76  O         -2.0560   36.1880   12.2440 O.2   150  ASN150     -0.2867
     77  CB        -2.8260   33.4900   13.6950 C.3   150  ASN150      0.1155
     78  CG        -3.3570   32.5850   14.7670 C.2   150  ASN150      0.2627
     79  OD1       -4.1330   33.0050   15.6360 O.2   150  ASN150     -0.2716
     80  ND2       -2.9470   31.3360   14.7310 N.am  150  ASN150     -0.0877
     81  N         -1.1690   34.8590   19.4470 N.3   169  LYS169     -0.1245
     82  CA        -1.4010   33.5420   18.8760 C.3   169  LYS169      0.1561
     83  C         -0.6310   33.3960   17.5570 C.2   169  LYS169      0.2260
     84  O         -0.7670   34.1880   16.6210 O.2   169  LYS169     -0.2867
     85  CB        -2.9320   33.2770   18.7590 C.3   169  LYS169      0.0271
     86  CG        -3.3000   31.8200   18.8470 C.3   169  LYS169      0.0035
     87  CD        -4.8040   31.5940   19.2460 C.3   169  LYS169      0.0206
     88  CE        -5.7960   32.2730   18.2890 C.3   169  LYS169      0.1093
     89  NZ        -5.9140   31.4950   17.0370 N.3   169  LYS169     -0.1314
     90  N          0.8160   31.1510   14.4060 N.3   171  GLY171     -0.1210
     91  CA         0.6310   30.0630   13.4410 C.3   171  GLY171      0.1956
     92  C         -0.2190   30.4610   12.2540 C.2   171  GLY171      0.2612
     93  O         -1.3600   30.8720   12.4240 O.2   171  GLY171     -0.2717
     94  N          0.3400   30.3660   11.0620 N.am  172  ILE172     -0.1965
     95  CA        -0.4280   30.5770    9.8310 C.3   172  ILE172      0.1727
     96  C         -0.1910   29.3290    8.9810 C.2   172  ILE172      0.2617
     97  O          0.9230   29.0730    8.4850 O.2   172  ILE172     -0.2715
     98  CB        -0.0810   31.9000    9.1160 C.3   172  ILE172      0.0290
     99  CG1       -0.6130   33.0690    9.9290 C.3   172  ILE172      0.0022
    100  CG2       -0.7070   31.9690    7.6780 C.3   172  ILE172      0.0023
    101  CD1       -0.0900   34.3130    9.5600 C.3   172  ILE172      0.0001
    102  N         -1.2500   28.5340    8.8730 N.am  173  GLY173     -0.1941
    103  CA        -1.2170   27.3090    8.1140 C.3   173  GLY173      0.1998
    104  C         -0.7120   25.9660    8.6520 C.2   173  GLY173      0.2480
    105  O         -0.7060   25.0340    7.8490 O.2   173  GLY173     -0.2729
    106  N         -0.2230   25.8650    9.9080 N.am  174  PRO174     -0.2726
    107  CA         0.2900   24.5340   10.3570 C.3   174  PRO174      0.1402
    108  C         -0.7640   23.5230   10.7630 C.2   174  PRO174      0.2269
    109  O         -0.4280   22.3630   11.0050 O.2   174  PRO174     -0.2865
    110  CB         1.0360   24.8820   11.6370 C.3   174  PRO174      0.0296
    111  CG         0.2800   25.9940   12.1800 C.3   174  PRO174      0.0237
    112  CD        -0.0430   26.8520   10.9870 C.3   174  PRO174      0.0939
    113  N         -6.1670   22.6630    8.2150 N.3   178  CYS178     -0.1235
    114  CA        -5.9230   23.9100    7.4450 C.3   178  CYS178      0.1677
    115  C         -5.4190   23.6200    6.0200 C.2   178  CYS178      0.2270
    116  O         -4.7070   22.6310    5.7940 O.2   178  CYS178     -0.2867
    117  CB        -4.8870   24.6790    8.1990 C.3   178  CYS178      0.0956
    118  SG        -4.7180   26.2890    7.4940 S.3   178  CYS178     -0.0801
    119  N         -4.7680   26.5640    4.0730 N.3   180  THR180     -0.1218
    120  CA        -4.2630   27.8760    3.6660 C.3   180  THR180      0.1862
    121  C         -2.9990   27.7320    2.8140 C.2   180  THR180      0.2287
    122  O         -2.8540   28.3830    1.8000 O.2   180  THR180     -0.2866
    123  CB        -3.9980   28.7370    4.9050 C.3   180  THR180      0.1770
    124  OG1       -5.2660   29.0570    5.5070 O.3   180  THR180     -0.2211
    125  CG2       -3.2870   30.0240    4.5470 C.3   180  THR180      0.0375
    126  N         -3.0250   29.3070   -0.8180 N.3   184  THR184     -0.1218
    127  CA        -2.3860   30.6480   -0.8750 C.3   184  THR184      0.1862
    128  C         -0.8650   30.6630   -0.9670 C.2   184  THR184      0.2287
    129  O         -0.2780   31.6750   -1.4190 O.2   184  THR184     -0.2866
    130  CB        -2.7850   31.5000    0.3280 C.3   184  THR184      0.1770
    131  OG1       -2.0260   31.1220    1.4860 O.3   184  THR184     -0.2211
    132  CG2       -4.2820   31.3150    0.6040 C.3   184  THR184      0.0375
    133  N         -0.0070   27.9570   18.1430 N.3   211  ASP211     -0.1239
    134  CA        -1.3460   27.5060   17.7340 C.3   211  ASP211      0.1674
    135  C         -1.2510   26.6380   16.4960 C.2   211  ASP211      0.2266
    136  O         -0.9570   27.1280   15.4300 O.2   211  ASP211     -0.2867
    137  CB        -2.2300   28.7250   17.4700 C.3   211  ASP211      0.1410
    138  CG        -3.5910   28.3650   16.9970 C.2   211  ASP211      0.3668
    139  OD1       -3.9360   27.1940   17.1740 O.co2 211  ASP211     -0.2456
    140  OD2       -4.3360   29.2890   16.5040 O.co2 211  ASP211     -0.2456
    141  N        -12.3250   25.8380   10.3720 N.3   261  MET261     -0.1230
    142  CA       -13.3230   26.8820   10.4810 C.3   261  MET261      0.1702
    143  C        -13.4560   27.7660    9.2310 C.2   261  MET261      0.2593
    144  O        -14.3730   28.5990    9.1170 O.2   261  MET261     -0.2718
    145  CB       -12.9820   27.7400   11.6900 C.3   261  MET261      0.0401
    146  CG       -13.1050   26.9800   13.0340 C.3   261  MET261      0.0596
    147  SD       -14.5580   25.9240   13.2760 S.3   261  MET261     -0.1393
    148  CE       -15.8850   27.0690   13.2700 C.3   261  MET261      0.0692
    149  N        -12.5070   27.6020    8.3050 N.am  262  SER262     -0.1952
    150  CA       -12.5200   28.1930    6.9620 C.3   262  SER262      0.1924
    151  C        -12.9650   27.1560    5.9030 C.2   262  SER262      0.2314
    152  O        -12.8260   27.4230    4.7050 O.2   262  SER262     -0.2863
    153  CB       -11.0570   28.6760    6.6200 C.3   262  SER262      0.2116
    154  OG       -11.0370   29.6030    5.6040 O.3   262  SER262     -0.2180
    155  N        -18.4090   27.0920    6.6010 N.3   267  MET267     -0.1245
    156  CA       -19.0130   28.2870    6.0210 C.3   267  MET267      0.1570
    157  C        -20.4480   28.0130    5.6840 C.2   267  MET267      0.2261
    158  O        -21.2980   28.9150    5.7710 O.2   267  MET267     -0.2867
    159  CB       -18.2510   28.7770    4.8160 C.3   267  MET267      0.0387
    160  CG       -16.9480   29.3860    5.1860 C.3   267  MET267      0.0595
    161  SD       -16.1700   30.1550    3.7660 S.3   267  MET267     -0.1393
    162  CE       -15.6100   28.6970    2.8920 C.3   267  MET267      0.0692
    163  N        -16.0270   35.3420   -3.8130 N.3   277  TYR277     -0.1227
    164  CA       -14.6300   35.7880   -3.8860 C.3   277  TYR277      0.1736
    165  C        -13.6480   35.0430   -2.9590 C.2   277  TYR277      0.2595
    166  O        -12.4570   35.3540   -2.9630 O.2   277  TYR277     -0.2718
    167  CB       -14.5270   37.2860   -3.5710 C.3   277  TYR277      0.0548
    168  CG       -14.9250   37.6420   -2.1510 C.ar  277  TYR277     -0.0200
    169  CD1      -13.9920   37.7060   -1.1460 C.ar  277  TYR277     -0.0009
    170  CD2      -16.2430   37.9670   -1.8410 C.ar  277  TYR277     -0.0009
    171  CE1      -14.3510   38.0370    0.1430 C.ar  277  TYR277      0.0417
    172  CE2      -16.6240   38.2990   -0.5430 C.ar  277  TYR277      0.0417
    173  CZ       -15.6700   38.3280    0.4440 C.ar  277  TYR277      0.1957
    174  OH       -16.0270   38.6570    1.7420 O.3   277  TYR277     -0.2866
    175  N        -14.1850   34.1580   -2.1200 N.am  278  ARG278     -0.1980
    176  CA       -13.4200   33.4020   -1.1200 C.3   278  ARG278      0.1597
    177  C        -13.1680   32.0070   -1.6280 C.2   278  ARG278      0.2287
    178  O        -13.9530   31.4690   -2.3940 O.2   278  ARG278     -0.2864
    179  CB       -14.2490   33.2230    0.1640 C.3   278  ARG278      0.0334
    180  CG       -14.4530   34.4870    0.9270 C.3   278  ARG278      0.0492
    181  CD       -15.3250   34.1990    2.1210 C.3   278  ARG278      0.2205
    182  NE       -15.5770   35.4140    2.9080 N.pl3 278  ARG278     -0.0865
    183  CZ       -16.3190   35.4440    4.0080 C.cat 278  ARG278      0.5346
    184  NH1      -16.9270   34.3310    4.4400 N.pl3 278  ARG278      0.1354
    185  NH2      -16.4780   36.5850    4.6720 N.pl3 278  ARG278      0.1354
    186  N        -10.3930   27.5540    2.9830 N.3   281  GLU281     -0.1245
    187  CA        -9.0140   27.3600    3.4860 C.3   281  GLU281      0.1567
    188  C         -8.9520   26.3640    4.6340 C.2   281  GLU281      0.2260
    189  O         -8.0120   26.3110    5.4350 O.2   281  GLU281     -0.2867
    190  CB        -8.3340   28.6930    3.8170 C.3   281  GLU281      0.0388
    191  CG        -8.1700   29.5140    2.5340 C.3   281  GLU281      0.1160
    192  CD        -7.4000   30.7850    2.7660 C.2   281  GLU281      0.3649
    193  OE1       -6.5890   30.7970    3.7250 O.co2 281  GLU281     -0.2457
    194  OE2       -7.6240   31.7800    1.9970 O.co2 281  GLU281     -0.2457
@<TRIPOS>BOND
     1   164   163    1
     2   164   167    1
     3   164   165    1
     4   167   168    1
     5   166   165    2
     6   165   175   am
     7   178   177    2
     8   168   170   ar
     9   168   169   ar
    10   175   176    1
    11   170   172   ar
    12   177   176    1
    13   129   128    2
    14   169   171   ar
    15   176   179    1
    16   128   127    1
    17   127   126    1
    18   127   130    1
    19   172   173   ar
    20   171   173   ar
    21   179   180    1
    22   130   132    1
    23   130   131    1
    24   173   174    1
    25   180   181    1
    26   122   121    2
    27   194   192   ar
    28   181   182    1
    29   191   192    1
    30   191   190    1
    31   192   193   ar
    32   121   120    1
    33   162   161    1
    34   182   183    2
    35   186   187    1
    36   187   190    1
    37   187   188    1
    38   120   119    1
    39   120   123    1
    40   161   160    1
    41   183   184    1
    42   183   185    1
    43   125   123    1
    44   188   189    2
    45   152   151    2
    46   159   160    1
    47   159   156    1
    48   123   124    1
    49   154   153    1
    50   157   158    2
    51   157   156    1
    52   116   115    2
    53   151   150    1
    54    56    54   am
    55   115   114    1
    56   156   155    1
    57   153   150    1
    58   150   149    1
    59    54    53    1
    60    54    55    2
    61   114   117    1
    62   114   113    1
    63   118   117    1
    64    53    50    1
    65   100    98    1
    66   105   104    2
    67   103   104    1
    68   103   102    1
    69    62    61    1
    70   149   143   am
    71    97    96    2
    72    48    45    1
    73   104   106   am
    74    61    58    1
    75    58    57    1
    76    58    59    1
    77   102    96   am
    78    50    49    1
    79    50    51    1
    80    96    95    1
    81    98    95    1
    82    98    99    1
    83   144   143    2
    84   143   142    1
    85    49    46   am
    86    46    47    2
    87    46    45    1
    88   101    99    1
    89    67    68    1
    90    67    64    1
    91    45    44    1
    92    95    94    1
    93    59    60    2
    94    52    51    2
    95   106   107    1
    96   106   112    1
    97    69    68   ar
    98    69    71   ar
    99    68    70   ar
   100    63    64    1
   101   107   108    1
   102   107   110    1
   103   141   142    1
   104   142   145    1
   105    71    72   ar
   106    70    72   ar
   107    64    65    1
   108    44    39   am
   109   108   109    2
   110   112   111    1
   111    94    92   am
   112   110   111    1
   113   145   146    1
   114    27    26    1
   115    39    40    2
   116    39    38    1
   117    65    66    2
   118    41    43    1
   119    41    38    1
   120    41    42    1
   121    76    75    2
   122    92    93    2
   123    92    91    1
   124    38    37    1
   125   146   147    1
   126    26    28    1
   127    26    23    1
   128   148   147    1
   129    75    74    1
   130    91    90    1
   131    77    74    1
   132    77    78    1
   133    24    25    2
   134    24    23    1
   135    37    31   am
   136    23    22    1
   137    17    16    1
   138    74    73    1
   139    22    20   am
   140    32    31    2
   141    16    15    1
   142    80    78   am
   143    78    79    2
   144    31    30    1
   145    20    19    1
   146    20    21    2
   147    19    18    1
   148    36    34   ar
   149   136   135    2
   150    35    34   ar
   151    34    33    1
   152    15    14    1
   153    30    33    1
   154    30    29    1
   155   135   134    1
   156   140   138   ar
   157    84    83    2
   158    14    13    1
   159   138   139   ar
   160   138   137    1
   161    89    88    1
   162   137   134    1
   163    83    82    1
   164   134   133    1
   165     4     3    2
   166     8     6   am
   167    13    10    1
   168    12    11    2
   169    88    87    1
   170     3     2    1
   171    11    10    1
   172    85    86    1
   173    85    82    1
   174     7     6    2
   175     6     5    1
   176    86    87    1
   177    82    81    1
   178     9    10    1
   179     2     5    1
   180     2     1    1
