@<TRIPOS>MOLECULE
tmp/2c6xB00.pdb
 167 160 0 0 0
SMALL
GASTEIGER

@<TRIPOS>ATOM
      1  N          9.4060    9.3080   49.6630 N.3   215  ALA215     -0.1231
      2  CA         9.5780    9.4130   51.0980 C.3   215  ALA215      0.1679
      3  C          9.3040   10.8350   51.5460 C.2   215  ALA215      0.2434
      4  O          9.5470   11.7790   50.7990 O.2   215  ALA215     -0.2733
      5  CB        10.9740    9.0290   51.4780 C.3   215  ALA215      0.0304
      6  N          8.7800   11.0060   52.7720 N.am  216  PRO216     -0.2718
      7  CA         8.4580   12.3000   53.3640 C.3   216  PRO216      0.1535
      8  C          9.7010   12.8620   54.0020 C.2   216  PRO216      0.2599
      9  O          9.6420   13.4710   55.0570 O.2   216  PRO216     -0.2715
     10  CB         7.4130   11.9590   54.4170 C.3   216  PRO216      0.0310
     11  CG         6.9050   10.6380   54.0170 C.3   216  PRO216      0.0237
     12  CD         8.1490    9.9480   53.5620 C.3   216  PRO216      0.0939
     13  N         10.8350   12.6160   53.3680 N.am  217  SER217     -0.1936
     14  CA        12.1140   13.1130   53.8430 C.3   217  SER217      0.2055
     15  C         11.9650   14.4770   54.5240 C.2   217  SER217      0.2643
     16  O         12.4750   14.6900   55.6200 O.2   217  SER217     -0.2714
     17  CB        13.0660   13.2200   52.6570 C.3   217  SER217      0.2130
     18  OG        12.3930   13.7850   51.5380 O.3   217  SER217     -0.2179
     19  N         11.2580   15.3950   53.8730 N.am  218  ALA218     -0.1963
     20  CA        11.0460   16.7320   54.4230 C.3   218  ALA218      0.1728
     21  C         10.5520   16.6760   55.8710 C.2   218  ALA218      0.2616
     22  O         10.9360   17.4870   56.7100 O.2   218  ALA218     -0.2715
     23  CB        10.0470   17.4900   53.5540 C.3   218  ALA218      0.0334
     24  N          9.6890   15.7120   56.1530 N.am  219  VAL219     -0.1977
     25  CA         9.1560   15.5380   57.4890 C.3   219  VAL219      0.1596
     26  C         10.1610   14.7690   58.3200 C.2   219  VAL219      0.2287
     27  O         10.5640   15.2220   59.3800 O.2   219  VAL219     -0.2864
     28  CB         7.8320   14.7560   57.4680 C.3   219  VAL219      0.0276
     29  CG1        7.4550   14.3360   58.8590 C.3   219  VAL219      0.0022
     30  CG2        6.7370   15.6120   56.8930 C.3   219  VAL219      0.0022
     31  N          7.9000   28.9590   61.9480 N.3   240  LEU240     -0.1245
     32  CA         6.5230   29.3700   61.7230 C.3   240  LEU240      0.1561
     33  C          6.3850   30.8860   61.8030 C.2   240  LEU240      0.2260
     34  O          5.3180   31.4410   61.5280 O.2   240  LEU240     -0.2867
     35  CB         5.6000   28.6870   62.7320 C.3   240  LEU240      0.0270
     36  CG         4.1270   28.5940   62.3310 C.3   240  LEU240      0.0019
     37  CD1        4.0190   28.3360   60.8410 C.3   240  LEU240      0.0001
     38  CD2        3.4420   27.4850   63.1130 C.3   240  LEU240      0.0001
     39  N          7.2590   32.5570   58.3330 N.3   243  GLY243     -0.1210
     40  CA         6.3480   31.9570   57.3840 C.3   243  GLY243      0.1956
     41  C          6.7230   30.6430   56.7420 C.2   243  GLY243      0.2612
     42  O          5.9990   30.2110   55.8400 O.2   243  GLY243     -0.2717
     43  N          7.8270   30.0140   57.1590 N.am  244  GLU244     -0.1965
     44  CA         8.1880   28.7150   56.5820 C.3   244  GLU244      0.1733
     45  C          6.9690   27.8030   56.8500 C.2   244  GLU244      0.2616
     46  O          6.1960   28.0520   57.7790 O.2   244  GLU244     -0.2715
     47  CB         9.4700   28.1320   57.2310 C.3   244  GLU244      0.0429
     48  CG        10.7830   28.9030   56.9310 C.3   244  GLU244      0.1163
     49  CD        12.0630   28.1480   57.3530 C.2   244  GLU244      0.3649
     50  OE1       12.3940   27.1160   56.7170 O.co2 244  GLU244     -0.2457
     51  OE2       12.7400   28.5910   58.3160 O.co2 244  GLU244     -0.2457
     52  N          6.7780   26.7730   56.0300 N.am  245  ARG245     -0.1963
     53  CA         5.6380   25.8730   56.2030 C.3   245  ARG245      0.1729
     54  C          5.9970   24.5920   56.9640 C.2   245  ARG245      0.2616
     55  O          7.1210   24.1060   56.8640 O.2   245  ARG245     -0.2715
     56  CB         5.0500   25.5300   54.8280 C.3   245  ARG245      0.0348
     57  CG         4.2330   26.6620   54.1910 C.3   245  ARG245      0.0492
     58  CD         3.7760   26.3210   52.7630 C.3   245  ARG245      0.2205
     59  NE         2.5180   26.9850   52.4050 N.pl3 245  ARG245     -0.0865
     60  CZ         2.0400   27.0830   51.1630 C.cat 245  ARG245      0.5346
     61  NH1        2.7160   26.5610   50.1430 N.pl3 245  ARG245      0.1354
     62  NH2        0.8790   27.6960   50.9380 N.pl3 245  ARG245      0.1354
     63  N          5.0410   24.0650   57.7310 N.am  246  LEU246     -0.1963
     64  CA         5.2270   22.8370   58.5160 C.3   246  LEU246      0.1728
     65  C          4.8780   21.6270   57.6500 C.2   246  LEU246      0.2616
     66  O          3.7030   21.3120   57.4390 O.2   246  LEU246     -0.2715
     67  CB         4.3290   22.8560   59.7470 C.3   246  LEU246      0.0311
     68  CG         4.5310   24.0000   60.7360 C.3   246  LEU246      0.0022
     69  CD1        3.5360   23.8660   61.8670 C.3   246  LEU246      0.0001
     70  CD2        5.9490   23.9820   61.2670 C.3   246  LEU246      0.0001
     71  N          5.9220   20.9400   57.1960 N.am  247  MET247     -0.1977
     72  CA         5.8340   19.8090   56.2770 C.3   247  MET247      0.1605
     73  C          4.7050   18.7650   56.2790 C.2   247  MET247      0.2287
     74  O          4.1510   18.4620   55.2130 O.2   247  MET247     -0.2864
     75  CB         7.1870   19.0910   56.2550 C.3   247  MET247      0.0413
     76  CG         8.3430   19.9560   55.7530 C.3   247  MET247      0.0598
     77  SD         7.8380   21.1860   54.5140 S.3   247  MET247     -0.1393
     78  CE         7.3540   20.1640   53.1170 C.3   247  MET247      0.0692
     79  N          1.5700   18.8870   57.0400 N.3   249  PHE249     -0.1227
     80  CA         0.1950   19.3500   57.1630 C.3   249  PHE249      0.1736
     81  C         -0.4620   20.0770   56.0080 C.2   249  PHE249      0.2596
     82  O          0.1920   20.7490   55.2130 O.2   249  PHE249     -0.2718
     83  CB         0.0780   20.1960   58.4200 C.3   249  PHE249      0.0547
     84  CG         0.5760   19.5030   59.6460 C.ar  249  PHE249     -0.0202
     85  CD1        1.9330   19.3090   59.8480 C.ar  249  PHE249     -0.0042
     86  CD2       -0.3110   19.0090   60.5840 C.ar  249  PHE249     -0.0042
     87  CE1        2.3940   18.6310   60.9660 C.ar  249  PHE249     -0.0003
     88  CE2        0.1460   18.3310   61.7040 C.ar  249  PHE249     -0.0003
     89  CZ         1.4990   18.1440   61.8930 C.ar  249  PHE249     -0.0000
     90  N         -1.7850   19.9450   55.9630 N.am  250  GLY250     -0.1942
     91  CA        -2.5770   20.5620   54.9230 C.3   250  GLY250      0.2014
     92  C         -2.6790   19.5670   53.8010 C.2   250  GLY250      0.2639
     93  O         -1.8320   18.6920   53.6890 O.2   250  GLY250     -0.2714
     94  N         -3.7100   19.6760   52.9760 N.am  251  HIS251     -0.1959
     95  CA        -3.8400   18.7470   51.8680 C.3   251  HIS251      0.1787
     96  C         -4.5960   19.3420   50.6840 C.2   251  HIS251      0.2620
     97  O         -5.5090   20.1510   50.8550 O.2   251  HIS251     -0.2715
     98  CB        -4.5170   17.4570   52.3400 C.3   251  HIS251      0.0785
     99  CG        -4.2060   16.2660   51.4850 C.ar  251  HIS251      0.0821
    100  ND1       -4.5530   16.1940   50.1540 N.ar  251  HIS251     -0.2267
    101  CD2       -3.5470   15.1160   51.7650 C.ar  251  HIS251      0.1154
    102  CE1       -4.1180   15.0530   49.6480 C.ar  251  HIS251      0.1986
    103  NE2       -3.5040   14.3800   50.6040 N.ar  251  HIS251     -0.2212
    104  N         -4.1880   18.9300   49.4850 N.am  252  ARG252     -0.1977
    105  CA        -4.7760   19.3820   48.2250 C.3   252  ARG252      0.1597
    106  C         -6.2110   18.9050   48.0100 C.2   252  ARG252      0.2287
    107  O         -7.0770   19.6740   47.5870 O.2   252  ARG252     -0.2864
    108  CB        -3.9410   18.8720   47.0410 C.3   252  ARG252      0.0334
    109  CG        -2.5700   19.4970   46.8550 C.3   252  ARG252      0.0492
    110  CD        -2.6810   20.9590   46.4410 C.3   252  ARG252      0.2205
    111  NE        -1.4270   21.4770   45.8900 N.pl3 252  ARG252     -0.0865
    112  CZ        -1.0700   22.7640   45.9110 C.cat 252  ARG252      0.5346
    113  NH1       -1.8730   23.6760   46.4650 N.pl3 252  ARG252      0.1354
    114  NH2        0.0900   23.1440   45.3750 N.pl3 252  ARG252      0.1354
    115  N         -0.8610   26.0580   64.6640 N.3   292  LEU292     -0.1245
    116  CA        -1.3380   26.5020   63.3690 C.3   292  LEU292      0.1561
    117  C         -2.5860   27.3170   63.6400 C.2   292  LEU292      0.2260
    118  O         -2.8440   28.3410   62.9910 O.2   292  LEU292     -0.2867
    119  CB        -1.6350   25.2920   62.4950 C.3   292  LEU292      0.0270
    120  CG        -0.3520   24.5150   62.2010 C.3   292  LEU292      0.0019
    121  CD1       -0.6710   23.1790   61.5860 C.3   292  LEU292      0.0001
    122  CD2        0.5280   25.3420   61.2780 C.3   292  LEU292      0.0001
    123  N         -1.9250   30.7750   62.0170 N.3   296  LYS296     -0.1245
    124  CA        -2.7870   30.9050   60.8480 C.3   296  LYS296      0.1561
    125  C         -4.1940   30.5170   61.2850 C.2   296  LYS296      0.2260
    126  O         -4.6490   29.4080   61.0270 O.2   296  LYS296     -0.2867
    127  CB        -2.3130   29.9870   59.7000 C.3   296  LYS296      0.0271
    128  CG        -0.8740   30.2150   59.1900 C.3   296  LYS296      0.0035
    129  CD        -0.6630   31.6020   58.5630 C.3   296  LYS296      0.0206
    130  CE         0.8150   31.8490   58.1840 C.3   296  LYS296      0.1093
    131  NZ         1.1010   33.2580   57.7250 N.3   296  LYS296     -0.1314
    132  N         -7.8680   29.0920   58.5730 N.3   299  ARG299     -0.1245
    133  CA        -7.4820   28.0730   57.6040 C.3   299  ARG299      0.1563
    134  C         -7.3470   26.6960   58.2320 C.2   299  ARG299      0.2260
    135  O         -6.3340   26.3730   58.8490 O.2   299  ARG299     -0.2867
    136  CB        -6.1660   28.4550   56.9160 C.3   299  ARG299      0.0307
    137  CG        -5.2850   29.4140   57.6990 C.3   299  ARG299      0.0489
    138  CD        -5.8020   30.8400   57.6240 C.3   299  ARG299      0.2205
    139  NE        -4.9200   31.7600   58.3290 N.pl3 299  ARG299     -0.0865
    140  CZ        -5.0850   33.0780   58.3530 C.cat 299  ARG299      0.5346
    141  NH1       -6.1050   33.6230   57.7080 N.pl3 299  ARG299      0.1354
    142  NH2       -4.2290   33.8490   59.0160 N.pl3 299  ARG299      0.1354
    143  N         -6.1610   23.7040   58.6030 N.3   301  LEU301     -0.1245
    144  CA        -5.0170   22.9310   58.1270 C.3   301  LEU301      0.1561
    145  C         -4.9270   21.7360   59.0530 C.2   301  LEU301      0.2260
    146  O         -4.7290   21.8870   60.2610 O.2   301  LEU301     -0.2867
    147  CB        -3.7180   23.7270   58.2260 C.3   301  LEU301      0.0270
    148  CG        -3.6970   25.1570   57.7040 C.3   301  LEU301      0.0019
    149  CD1       -2.2590   25.6070   57.6220 C.3   301  LEU301      0.0001
    150  CD2       -4.3550   25.2420   56.3410 C.3   301  LEU301      0.0001
    151  N         -1.6930   15.6870   57.6210 N.3   304  ASN304     -0.1240
    152  CA        -1.9040   14.8670   56.4220 C.3   304  ASN304      0.1653
    153  C         -1.1220   13.5630   56.5020 C.2   304  ASN304      0.2266
    154  O         -0.0200   13.5380   57.0370 O.2   304  ASN304     -0.2867
    155  CB        -1.4640   15.6400   55.1760 C.3   304  ASN304      0.1155
    156  CG         0.0460   15.8130   55.0950 C.2   304  ASN304      0.2627
    157  OD1        0.7790   14.8360   55.0320 O.2   304  ASN304     -0.2716
    158  ND2        0.5140   17.0580   55.0880 N.am  304  ASN304     -0.0877
    159  N          1.0100   11.8370   54.8710 N.3   306  GLU306     -0.1245
    160  CA         2.4470   11.9240   54.6640 C.3   306  GLU306      0.1567
    161  C          3.1770   12.0510   56.0030 C.2   306  GLU306      0.2260
    162  O          4.1910   11.3980   56.2310 O.2   306  GLU306     -0.2867
    163  CB         2.7870   13.1190   53.7610 C.3   306  GLU306      0.0388
    164  CG         2.2640   13.0250   52.3180 C.3   306  GLU306      0.1160
    165  CD         2.9920   11.9690   51.4730 C.2   306  GLU306      0.3649
    166  OE1        4.2440   12.0290   51.3810 O.co2 306  GLU306     -0.2457
    167  OE2        2.3140   11.0830   50.8900 O.co2 306  GLU306     -0.2457
@<TRIPOS>BOND
     1   114   112    1
     2   111   112    2
     3   111   110    1
     4   112   113    1
     5   110   109    1
     6   109   108    1
     7   108   105    1
     8   107   106    2
     9   106   105    1
    10   105   104    1
    11   104    96   am
    12   102   100   ar
    13   102   103   ar
    14     1     2    1
    15    61    60    1
    16   100    99   ar
    17   103   101   ar
    18    96    97    2
    19    96    95    1
    20     4     3    2
    21   167   165   ar
    22    62    60    1
    23     2     5    1
    24     2     3    1
    25    60    59    2
    26   166   165   ar
    27   165   164    1
    28    99   101   ar
    29    99    98    1
    30    18    17    1
    31     3     6   am
    32    95    98    1
    33    95    94    1
    34   164   163    1
    35    59    58    1
    36    17    14    1
    37    58    57    1
    38     6     7    1
    39     6    12    1
    40    94    92   am
    41    78    77    1
    42     7     8    1
    43     7    10    1
    44    13    14    1
    45    13     8   am
    46    23    20    1
    47    12    11    1
    48    93    92    2
    49   163   160    1
    50    92    91    1
    51    14    15    1
    52    19    20    1
    53    19    15   am
    54     8     9    2
    55    11    10    1
    56    57    56    1
    57    20    21    1
    58    77    76    1
    59    15    16    2
    60   160   159    1
    61   160   161    1
    62    56    53    1
    63    91    90    1
    64   157   156    2
    65   158   156   am
    66   156   155    1
    67   155   152    1
    68    74    73    2
    69    82    81    2
    70    76    75    1
    71    42    41    2
    72    21    24   am
    73    21    22    2
    74    90    81   am
    75   161   162    2
    76    81    80    1
    77    52    53    1
    78    52    45   am
    79    24    25    1
    80    53    54    1
    81    75    72    1
    82    72    73    1
    83    72    71    1
    84   150   148    1
    85   152   153    1
    86   152   151    1
    87   153   154    2
    88    44    45    1
    89    44    43    1
    90    44    47    1
    91    50    49   ar
    92    41    43   am
    93    41    40    1
    94    45    46    2
    95    55    54    2
    96    30    28    1
    97   136   133    1
    98   136   137    1
    99    48    47    1
   100    48    49    1
   101    54    63   am
   102    79    80    1
   103    80    83    1
   104    71    65   am
   105    49    51   ar
   106    40    39    1
   107    66    65    2
   108    28    25    1
   109    28    29    1
   110    25    26    1
   111   133   134    1
   112   133   132    1
   113   149   148    1
   114   138   137    1
   115   138   139    1
   116    65    64    1
   117   148   147    1
   118   141   140    1
   119   131   130    1
   120    63    64    1
   121   144   147    1
   122   144   143    1
   123   144   145    1
   124   130   129    1
   125   134   135    2
   126    26    27    2
   127   139   140    2
   128   140   142    1
   129    83    84    1
   130    64    67    1
   131   129   128    1
   132   145   146    2
   133   128   127    1
   134    84    85   ar
   135    84    86   ar
   136   127   124    1
   137    67    68    1
   138    85    87   ar
   139    86    88   ar
   140    68    70    1
   141    68    69    1
   142    37    36    1
   143   124   125    1
   144   124   123    1
   145    87    89   ar
   146   126   125    2
   147   122   120    1
   148    34    33    2
   149   121   120    1
   150    88    89   ar
   151    32    33    1
   152    32    31    1
   153    32    35    1
   154   120   119    1
   155    36    35    1
   156    36    38    1
   157   119   116    1
   158   118   117    2
   159   116   117    1
   160   116   115    1
