@<TRIPOS>MOLECULE
tmp/2c6xB01.pdb
 122 116 0 0 0
SMALL
GASTEIGER

@<TRIPOS>ATOM
      1  N        -12.9090    8.1900   47.2820 N.3    18  ILE18      -0.1245
      2  CA       -12.2720    9.1890   48.1130 C.3    18  ILE18       0.1561
      3  C        -13.1270   10.4470   47.9800 C.2    18  ILE18       0.2260
      4  O        -13.4480   10.8720   46.8650 O.2    18  ILE18      -0.2867
      5  CB       -10.7780    9.4310   47.6740 C.3    18  ILE18       0.0252
      6  CG1      -10.6000   10.7960   47.0010 C.3    18  ILE18       0.0019
      7  CG2      -10.3380    8.3340   46.7080 C.3    18  ILE18       0.0019
      8  CD1       -9.1670   11.0700   46.4960 C.3    18  ILE18       0.0001
      9  N         -6.1570    3.5310   47.1940 N.3   177  HIS177     -0.1241
     10  CA        -6.5030    4.9260   47.3770 C.3   177  HIS177      0.1621
     11  C         -6.9580    5.4680   46.0470 C.2   177  HIS177      0.2264
     12  O         -6.2740    6.2640   45.4180 O.2   177  HIS177     -0.2867
     13  CB        -5.3220    5.7350   47.9050 C.3   177  HIS177      0.0745
     14  CG        -5.6950    7.1020   48.4080 C.ar  177  HIS177      0.0817
     15  ND1       -6.2890    8.0570   47.6120 N.ar  177  HIS177     -0.2268
     16  CD2       -5.5240    7.6820   49.6210 C.ar  177  HIS177      0.1154
     17  CE1       -6.4670    9.1650   48.3110 C.ar  177  HIS177      0.1986
     18  NE2       -6.0110    8.9640   49.5340 N.ar  177  HIS177     -0.2212
     19  N         -8.2360    6.2250   42.1760 N.3   179  MET179     -0.1230
     20  CA        -7.5490    6.3170   40.9020 C.3   179  MET179      0.1702
     21  C         -6.3720    7.2510   40.9760 C.2   179  MET179      0.2592
     22  O         -6.5290    8.4620   41.1170 O.2   179  MET179     -0.2718
     23  CB        -8.4940    6.8300   39.8350 C.3   179  MET179      0.0401
     24  CG        -8.0530    6.4440   38.4670 C.3   179  MET179      0.0596
     25  SD        -8.1050    4.6610   38.4020 S.3   179  MET179     -0.1393
     26  CE        -9.8330    4.3980   38.0850 C.3   179  MET179      0.0692
     27  N         -5.1820    6.6980   40.8630 N.am  180  ASN180     -0.1974
     28  CA        -4.0070    7.5260   40.9340 C.3   180  ASN180      0.1688
     29  C         -3.0000    7.0420   39.9390 C.2   180  ASN180      0.2292
     30  O         -2.9490    5.8620   39.6110 O.2   180  ASN180     -0.2864
     31  CB        -3.4260    7.4900   42.3460 C.3   180  ASN180      0.1181
     32  CG        -3.4300    6.0980   42.9380 C.2   180  ASN180      0.2629
     33  OD1       -2.5810    5.2660   42.6210 O.2   180  ASN180     -0.2716
     34  ND2       -4.4070    5.8280   43.7920 N.am  180  ASN180     -0.0877
     35  N          6.9920   11.9200   42.2840 N.3   211  LEU211     -0.1231
     36  CA         5.7390   12.6150   42.5670 C.3   211  LEU211      0.1693
     37  C          4.6480   11.7190   43.1320 C.2   211  LEU211      0.2592
     38  O          3.5700   12.1850   43.5020 O.2   211  LEU211     -0.2718
     39  CB         5.2460   13.3150   41.3030 C.3   211  LEU211      0.0284
     40  CG         6.2900   14.2940   40.7640 C.3   211  LEU211      0.0019
     41  CD1        5.7750   15.0130   39.5350 C.3   211  LEU211      0.0001
     42  CD2        6.6420   15.2860   41.8570 C.3   211  LEU211      0.0001
     43  N          4.9440   10.4310   43.2070 N.am  212  HIS212     -0.1962
     44  CA         4.0000    9.4580   43.7250 C.3   212  HIS212      0.1787
     45  C          4.7500    8.6280   44.7500 C.2   212  HIS212      0.2620
     46  O          5.8310    8.1270   44.4730 O.2   212  HIS212     -0.2715
     47  CB         3.5190    8.5540   42.5950 C.3   212  HIS212      0.0785
     48  CG         2.1700    7.9540   42.8240 C.ar  212  HIS212      0.0821
     49  ND1        1.7450    6.8170   42.1710 N.ar  212  HIS212     -0.2267
     50  CD2        1.1320    8.3600   43.5890 C.ar  212  HIS212      0.1154
     51  CE1        0.5020    6.5480   42.5230 C.ar  212  HIS212      0.1986
     52  NE2        0.1050    7.4700   43.3820 N.ar  212  HIS212     -0.2212
     53  N          4.1840    8.5040   45.9410 N.am  213  GLY213     -0.1954
     54  CA         4.8120    7.7170   46.9860 C.3   213  GLY213      0.1869
     55  C          6.2950    7.9230   47.2310 C.2   213  GLY213      0.2309
     56  O          7.0560    6.9620   47.3150 O.2   213  GLY213     -0.2863
     57  N         -3.7100   19.6760   52.9760 N.3   251  HIS251     -0.1241
     58  CA        -3.8400   18.7470   51.8680 C.3   251  HIS251      0.1621
     59  C         -4.5960   19.3420   50.6840 C.2   251  HIS251      0.2264
     60  O         -5.5090   20.1510   50.8550 O.2   251  HIS251     -0.2867
     61  CB        -4.5170   17.4570   52.3400 C.3   251  HIS251      0.0745
     62  CG        -4.2060   16.2660   51.4850 C.ar  251  HIS251      0.0817
     63  ND1       -4.5530   16.1940   50.1540 N.ar  251  HIS251     -0.2268
     64  CD2       -3.5470   15.1160   51.7650 C.ar  251  HIS251      0.1154
     65  CE1       -4.1180   15.0530   49.6480 C.ar  251  HIS251      0.1986
     66  NE2       -3.5040   14.3800   50.6040 N.ar  251  HIS251     -0.2212
     67  N         -6.4430   17.6260   48.2920 N.3   253  VAL253     -0.1245
     68  CA        -7.7470   17.0050   48.0780 C.3   253  VAL253      0.1561
     69  C         -8.6280   16.8870   49.3280 C.2   253  VAL253      0.2260
     70  O         -9.8540   16.7520   49.2240 O.2   253  VAL253     -0.2867
     71  CB        -7.5780   15.5880   47.4390 C.3   253  VAL253      0.0252
     72  CG1       -8.8760   15.1660   46.7590 C.3   253  VAL253      0.0019
     73  CG2       -6.4190   15.5860   46.4260 C.3   253  VAL253      0.0019
     74  N         -6.7410    8.9350   56.6930 N.3   260  ARG260     -0.1245
     75  CA        -5.5670    8.0880   56.8220 C.3   260  ARG260      0.1563
     76  C         -4.7120    8.6370   57.9450 C.2   260  ARG260      0.2260
     77  O         -4.3890    7.9390   58.8950 O.2   260  ARG260     -0.2867
     78  CB        -4.7770    8.1080   55.5260 C.3   260  ARG260      0.0307
     79  CG        -5.5910    7.7120   54.3360 C.3   260  ARG260      0.0489
     80  CD        -4.7560    7.7320   53.0910 C.3   260  ARG260      0.2205
     81  NE        -4.4260    9.0850   52.6730 N.pl3 260  ARG260     -0.0865
     82  CZ        -3.6120    9.3530   51.6600 C.cat 260  ARG260      0.5346
     83  NH1       -3.0590    8.3520   50.9840 N.pl3 260  ARG260      0.1354
     84  NH2       -3.3510   10.6090   51.3180 N.pl3 260  ARG260      0.1354
     85  N         -1.6790   12.4860   55.9550 N.3   305  VAL305     -0.1231
     86  CA        -1.0300   11.1690   55.9930 C.3   305  VAL305      0.1692
     87  C          0.4900   11.1840   55.9050 C.2   305  VAL305      0.2591
     88  O          1.1760   10.6110   56.7550 O.2   305  VAL305     -0.2718
     89  CB        -1.5570   10.2480   54.8750 C.3   305  VAL305      0.0266
     90  CG1       -1.4360   10.9300   53.5370 C.3   305  VAL305      0.0020
     91  CG2       -0.7760    8.9570   54.8620 C.3   305  VAL305      0.0020
     92  N          1.0100   11.8370   54.8710 N.am  306  GLU306     -0.1979
     93  CA         2.4470   11.9240   54.6640 C.3   306  GLU306      0.1602
     94  C          3.1770   12.0510   56.0030 C.2   306  GLU306      0.2287
     95  O          4.1910   11.3980   56.2310 O.2   306  GLU306     -0.2864
     96  CB         2.7870   13.1190   53.7610 C.3   306  GLU306      0.0415
     97  CG         2.2640   13.0250   52.3180 C.3   306  GLU306      0.1163
     98  CD         2.9920   11.9690   51.4730 C.2   306  GLU306      0.3649
     99  OE1        4.2440   12.0290   51.3810 O.co2 306  GLU306     -0.2457
    100  OE2        2.3140   11.0830   50.8900 O.co2 306  GLU306     -0.2457
    101  N          5.8700    0.9430   50.2270 N.3   327  PHE327     -0.1241
    102  CA         4.5960    1.4760   49.7990 C.3   327  PHE327      0.1605
    103  C          4.0720    0.6080   48.6710 C.2   327  PHE327      0.2264
    104  O          2.9420    0.1330   48.7210 O.2   327  PHE327     -0.2867
    105  CB         4.7730    2.9030   49.3200 C.3   327  PHE327      0.0534
    106  CG         3.5160    3.7200   49.3510 C.ar  327  PHE327     -0.0203
    107  CD1        2.7630    3.9010   48.2100 C.ar  327  PHE327     -0.0042
    108  CD2        3.1230    4.3630   50.5180 C.ar  327  PHE327     -0.0042
    109  CE1        1.6450    4.7150   48.2250 C.ar  327  PHE327     -0.0003
    110  CE2        2.0050    5.1810   50.5440 C.ar  327  PHE327     -0.0003
    111  CZ         1.2670    5.3590   49.3940 C.ar  327  PHE327     -0.0000
    112  N          0.3420   -0.9440   47.9100 N.3   331  ARG331     -0.1245
    113  CA        -0.5360   -0.5150   46.8490 C.3   331  ARG331      0.1563
    114  C         -0.6900   -1.6610   45.8690 C.2   331  ARG331      0.2260
    115  O         -1.5640   -1.6430   45.0110 O.2   331  ARG331     -0.2867
    116  CB         0.0340    0.6990   46.1420 C.3   331  ARG331      0.0307
    117  CG        -0.9530    1.3130   45.2010 C.3   331  ARG331      0.0489
    118  CD        -2.2290    1.6580   45.9420 C.3   331  ARG331      0.2205
    119  NE        -2.0340    2.7530   46.8900 N.pl3 331  ARG331     -0.0865
    120  CZ        -1.8420    4.0190   46.5320 C.cat 331  ARG331      0.5346
    121  NH1       -1.8220    4.3410   45.2450 N.pl3 331  ARG331      0.1354
    122  NH2       -1.6750    4.9630   47.4510 N.pl3 331  ARG331      0.1354
@<TRIPOS>BOND
     1    26    25    1
     2    25    24    1
     3    24    23    1
     4    41    40    1
     5    30    29    2
     6    23    20    1
     7    29    28    1
     8    40    39    1
     9    40    42    1
    10    27    28    1
    11    27    21   am
    12    20    21    1
    13    20    19    1
    14    28    31    1
    15    21    22    2
    16    39    36    1
    17    49    51   ar
    18    49    48   ar
    19    35    36    1
    20    31    32    1
    21    51    52   ar
    22    36    37    1
    23    47    48    1
    24    47    44    1
    25    33    32    2
    26    48    50   ar
    27    32    34   am
    28    37    43   am
    29    37    38    2
    30    43    44    1
    31    52    50   ar
    32    44    45    1
    33    46    45    2
    34    45    53   am
    35   115   114    2
    36   117   118    1
    37   117   116    1
    38   121   120    1
    39    12    11    2
    40   114   113    1
    41    53    54    1
    42   118   119    1
    43    11    10    1
    44   116   113    1
    45    73    71    1
    46     8     6    1
    47   120   119    2
    48   120   122    1
    49     7     5    1
    50    72    71    1
    51   113   112    1
    52     4     3    2
    53    54    55    1
    54     6     5    1
    55     9    10    1
    56    55    56    2
    57     1     2    1
    58    10    13    1
    59    71    68    1
    60    15    17   ar
    61    15    14   ar
    62     5     2    1
    63    13    14    1
    64     3     2    1
    65    68    67    1
    66    68    69    1
    67   107   109   ar
    68   107   106   ar
    69   109   111   ar
    70    17    18   ar
    71    14    16   ar
    72   103   104    2
    73   103   102    1
    74    70    69    2
    75   105   106    1
    76   105   102    1
    77   106   108   ar
    78   111   110   ar
    79    18    16   ar
    80    65    63   ar
    81    65    66   ar
    82   102   101    1
    83    63    62   ar
    84   108   110   ar
    85    66    64   ar
    86    59    60    2
    87    59    58    1
    88   100    98   ar
    89    83    82    1
    90    84    82    1
    91    99    98   ar
    92    98    97    1
    93    62    64   ar
    94    62    61    1
    95    82    81    2
    96    58    61    1
    97    58    57    1
    98    97    96    1
    99    81    80    1
   100    80    79    1
   101    90    89    1
   102    96    93    1
   103    79    78    1
   104    93    92    1
   105    93    94    1
   106    91    89    1
   107    92    87   am
   108    89    86    1
   109    78    75    1
   110    87    86    1
   111    87    88    2
   112    85    86    1
   113    94    95    2
   114    74    75    1
   115    75    76    1
   116    76    77    2
