@<TRIPOS>MOLECULE
tmp/2c70A01.pdb
 109 106 0 0 0
SMALL
GASTEIGER

@<TRIPOS>ATOM
      1  N         59.8610  152.4620   22.6160 N.3    58  TYR58      -0.1241
      2  CA        60.3210  152.8890   23.9440 C.3    58  TYR58       0.1605
      3  C         60.7320  151.7420   24.8460 C.2    58  TYR58       0.2264
      4  O         60.0730  150.7010   24.8880 O.2    58  TYR58      -0.2867
      5  CB        59.2410  153.7350   24.6580 C.3    58  TYR58       0.0534
      6  CG        58.8160  154.8840   23.7900 C.ar   58  TYR58      -0.0201
      7  CD1       57.6010  154.8560   23.1110 C.ar   58  TYR58      -0.0009
      8  CD2       59.6710  155.9650   23.5820 C.ar   58  TYR58      -0.0009
      9  CE1       57.2370  155.8870   22.2480 C.ar   58  TYR58       0.0417
     10  CE2       59.3190  157.0070   22.7260 C.ar   58  TYR58       0.0417
     11  CZ        58.1050  156.9550   22.0600 C.ar   58  TYR58       0.1957
     12  OH        57.7760  157.9940   21.2220 O.3    58  TYR58      -0.2866
     13  N         43.8320  157.2070   29.5780 N.3   166  PHE166     -0.1241
     14  CA        44.8450  156.2630   30.0910 C.3   166  PHE166      0.1605
     15  C         44.6040  154.8390   29.5640 C.2   166  PHE166      0.2264
     16  O         45.5270  154.2100   29.0570 O.2   166  PHE166     -0.2867
     17  CB        44.8420  156.3200   31.6220 C.3   166  PHE166      0.0534
     18  CG        45.5830  155.2070   32.3010 C.ar  166  PHE166     -0.0203
     19  CD1       46.9440  155.0140   32.0800 C.ar  166  PHE166     -0.0042
     20  CD2       44.9270  154.3860   33.2200 C.ar  166  PHE166     -0.0042
     21  CE1       47.6380  153.9830   32.7510 C.ar  166  PHE166     -0.0003
     22  CE2       45.6140  153.3610   33.8890 C.ar  166  PHE166     -0.0003
     23  CZ        46.9660  153.1580   33.6470 C.ar  166  PHE166     -0.0000
     24  N         45.2220  154.7670   25.6880 N.3   169  LEU169     -0.1231
     25  CA        46.6640  154.8590   25.3800 C.3   169  LEU169      0.1693
     26  C         47.4540  153.5920   25.7340 C.2   169  LEU169      0.2592
     27  O         48.3560  153.1520   24.9900 O.2   169  LEU169     -0.2718
     28  CB        47.2710  156.0660   26.1120 C.3   169  LEU169      0.0284
     29  CG        48.7550  156.3900   25.9040 C.3   169  LEU169      0.0019
     30  CD1       49.0940  156.6310   24.4160 C.3   169  LEU169      0.0001
     31  CD2       49.1630  157.5970   26.7510 C.3   169  LEU169      0.0001
     32  N         47.1380  153.0310   26.8930 N.am  170  CYS170     -0.1970
     33  CA        47.8220  151.8680   27.3960 C.3   170  CYS170      0.1712
     34  C         47.6120  150.6180   26.5510 C.2   170  CYS170      0.2296
     35  O         48.5610  149.8540   26.3120 O.2   170  CYS170     -0.2864
     36  CB        47.3150  151.6000   28.8070 C.3   170  CYS170      0.0983
     37  SG        48.1900  152.5200   30.0440 S.3   170  CYS170     -0.0798
     38  N         54.0200  152.7330   34.4000 N.3   196  ILE196     -0.1231
     39  CA        53.5560  152.5520   33.0280 C.3   196  ILE196      0.1692
     40  C         53.3650  153.8850   32.2800 C.2   196  ILE196      0.2591
     41  O         53.6480  153.9590   31.0850 O.2   196  ILE196     -0.2718
     42  CB        52.2920  151.6110   32.9590 C.3   196  ILE196      0.0266
     43  CG1       52.1690  150.9390   31.5780 C.3   196  ILE196      0.0019
     44  CG2       51.0030  152.3670   33.3590 C.3   196  ILE196      0.0020
     45  CD1       51.0650  149.8490   31.5260 C.3   196  ILE196      0.0001
     46  N         52.9090  154.9330   32.9780 N.am  197  ILE197     -0.1980
     47  CA        52.6390  156.2360   32.3410 C.3   197  ILE197      0.1595
     48  C         53.8230  157.1760   32.2500 C.2   197  ILE197      0.2287
     49  O         53.7480  158.2050   31.5370 O.2   197  ILE197     -0.2864
     50  CB        51.4620  157.0070   33.0270 C.3   197  ILE197      0.0276
     51  CG1       51.8670  157.5340   34.4150 C.3   197  ILE197      0.0022
     52  CG2       50.2380  156.1190   33.1280 C.3   197  ILE197      0.0022
     53  CD1       51.1610  158.8160   34.8220 C.3   197  ILE197      0.0001
     54  N         58.4250  154.9300   28.9960 N.3   204  GLN204     -0.1245
     55  CA        58.7340  155.7360   27.8030 C.3   204  GLN204      0.1566
     56  C         60.0230  156.5300   27.9550 C.2   204  GLN204      0.2260
     57  O         60.2420  157.5170   27.2360 O.2   204  GLN204     -0.2867
     58  CB        57.5690  156.6830   27.4400 C.3   204  GLN204      0.0367
     59  CG        56.3030  155.9890   26.9040 C.3   204  GLN204      0.0905
     60  CD        55.6680  155.0370   27.9010 C.2   204  GLN204      0.2608
     61  OE1       55.7260  153.8160   27.7250 O.2   204  GLN204     -0.2717
     62  NE2       55.0620  155.5800   28.9450 N.am  204  GLN204     -0.0878
     63  N         47.8380  161.4480   22.4350 N.3   324  TYR324     -0.1241
     64  CA        49.1400  161.4690   23.0910 C.3   324  TYR324      0.1605
     65  C         50.2630  161.6250   22.1010 C.2   324  TYR324      0.2264
     66  O         50.2580  160.9690   21.0460 O.2   324  TYR324     -0.2867
     67  CB        49.3760  160.1740   23.8190 C.3   324  TYR324      0.0534
     68  CG        50.5470  160.1660   24.7720 C.ar  324  TYR324     -0.0201
     69  CD1       50.4950  160.8860   25.9670 C.ar  324  TYR324     -0.0009
     70  CD2       51.6730  159.3580   24.5290 C.ar  324  TYR324     -0.0009
     71  CE1       51.5390  160.8560   26.8640 C.ar  324  TYR324      0.0417
     72  CE2       52.7250  159.3060   25.4430 C.ar  324  TYR324      0.0417
     73  CZ        52.6380  160.0630   26.6120 C.ar  324  TYR324      0.1957
     74  OH        53.6450  160.0410   27.5560 O.3   324  TYR324     -0.2866
     75  N         49.9280  159.0910   18.5840 N.3   341  PHE341     -0.1241
     76  CA        49.1300  157.8870   18.3610 C.3   341  PHE341      0.1605
     77  C         47.6890  158.2630   18.0570 C.2   341  PHE341      0.2264
     78  O         47.1140  159.0730   18.7710 O.2   341  PHE341     -0.2867
     79  CB        49.1010  157.0330   19.6230 C.3   341  PHE341      0.0534
     80  CG        50.4050  156.3730   19.9640 C.ar  341  PHE341     -0.0203
     81  CD1       50.9900  156.5790   21.2090 C.ar  341  PHE341     -0.0042
     82  CD2       51.0360  155.5340   19.0580 C.ar  341  PHE341     -0.0042
     83  CE1       52.2210  155.9460   21.5460 C.ar  341  PHE341     -0.0003
     84  CE2       52.2450  154.9090   19.3780 C.ar  341  PHE341     -0.0003
     85  CZ        52.8290  155.1060   20.6300 C.ar  341  PHE341     -0.0000
     86  N         49.1570  147.7880   20.3370 N.3   396  TYR396     -0.1241
     87  CA        50.4840  147.1820   20.5750 C.3   396  TYR396      0.1605
     88  C         50.4090  145.6850   20.8010 C.2   396  TYR396      0.2264
     89  O         51.3550  144.9620   20.4980 O.2   396  TYR396     -0.2867
     90  CB        51.1380  147.8010   21.8120 C.3   396  TYR396      0.0534
     91  CG        50.7570  149.2500   22.0500 C.ar  396  TYR396     -0.0201
     92  CD1       50.9500  150.2090   21.0570 C.ar  396  TYR396     -0.0009
     93  CD2       50.2230  149.6630   23.2770 C.ar  396  TYR396     -0.0009
     94  CE1       50.6200  151.5470   21.2710 C.ar  396  TYR396      0.0417
     95  CE2       49.8870  151.0110   23.4970 C.ar  396  TYR396      0.0417
     96  CZ        50.1030  151.9400   22.4790 C.ar  396  TYR396      0.1957
     97  OH        49.7830  153.2540   22.6550 O.3   396  TYR396     -0.2866
     98  N         54.9910  144.4110   25.5920 N.3   433  TYR433     -0.1241
     99  CA        56.1760  145.2180   25.2640 C.3   433  TYR433      0.1605
    100  C         57.3010  144.3520   24.6830 C.2   433  TYR433      0.2264
    101  O         57.2470  143.1210   24.7310 O.2   433  TYR433     -0.2867
    102  CB        56.6900  145.9020   26.5550 C.3   433  TYR433      0.0534
    103  CG        55.7440  146.9590   27.1040 C.ar  433  TYR433     -0.0201
    104  CD1       54.5480  146.6060   27.7490 C.ar  433  TYR433     -0.0009
    105  CD2       56.0390  148.3270   26.9570 C.ar  433  TYR433     -0.0009
    106  CE1       53.6760  147.5940   28.2420 C.ar  433  TYR433      0.0417
    107  CE2       55.1770  149.2960   27.4430 C.ar  433  TYR433      0.0417
    108  CZ        54.0040  148.9230   28.0730 C.ar  433  TYR433      0.1957
    109  OH        53.1690  149.9190   28.5260 O.3   433  TYR433     -0.2866
@<TRIPOS>BOND
     1    77    76    1
     2    77    78    2
     3    76    75    1
     4    76    79    1
     5    82    84   ar
     6    82    80   ar
     7    84    85   ar
     8    79    80    1
     9    80    81   ar
    10    86    87    1
    11    89    88    2
    12    87    88    1
    13    87    90    1
    14    85    83   ar
    15    66    65    2
    16    92    94   ar
    17    92    91   ar
    18    81    83   ar
    19    12    11    1
    20    94    96   ar
    21    90    91    1
    22    91    93   ar
    23    11     9   ar
    24    11    10   ar
    25    65    64    1
    26     9     7   ar
    27    63    64    1
    28    96    97    1
    29    96    95   ar
    30     1     2    1
    31    10     8   ar
    32    64    67    1
    33     7     6   ar
    34    93    95   ar
    35     8     6   ar
    36     6     5    1
    37    67    68    1
    38     2     5    1
    39     2     3    1
    40    30    29    1
    41    70    68   ar
    42    70    72   ar
    43   100   101    2
    44   100    99    1
    45    68    69   ar
    46     3     4    2
    47    27    26    2
    48    99    98    1
    49    99   102    1
    50    25    24    1
    51    25    26    1
    52    25    28    1
    53    72    73   ar
    54    26    32   am
    55    29    28    1
    56    29    31    1
    57    69    71   ar
    58    35    34    2
    59    34    33    1
    60   102   103    1
    61    73    71   ar
    62    73    74    1
    63    32    33    1
    64    59    58    1
    65    59    60    1
    66   105   103   ar
    67   105   107   ar
    68   103   104   ar
    69    57    56    2
    70    33    36    1
    71    58    55    1
    72   107   108   ar
    73    61    60    2
    74   104   106   ar
    75    55    56    1
    76    55    54    1
    77    60    62   am
    78   108   106   ar
    79   108   109    1
    80    36    37    1
    81    16    15    2
    82    15    14    1
    83    13    14    1
    84    14    17    1
    85    41    40    2
    86    45    43    1
    87    49    48    2
    88    43    42    1
    89    17    18    1
    90    19    18   ar
    91    19    21   ar
    92    48    47    1
    93    40    46   am
    94    40    39    1
    95    18    20   ar
    96    47    46    1
    97    47    50    1
    98    21    23   ar
    99    42    39    1
   100    42    44    1
   101    50    52    1
   102    50    51    1
   103    39    38    1
   104    20    22   ar
   105    23    22   ar
   106    51    53    1
