@<TRIPOS>MOLECULE
tmp/2c74A00.pdb
 177 167 0 0 0
SMALL
GASTEIGER

@<TRIPOS>ATOM
      1  N         -7.1670  -17.3000    1.5230 N.3    45  SER45      -0.1217
      2  CA        -7.4710  -17.8320    2.8150 C.3    45  SER45       0.1889
      3  C         -7.5220  -16.7310    3.8650 C.2    45  SER45       0.2288
      4  O         -8.4010  -16.7550    4.6960 O.2    45  SER45      -0.2866
      5  CB        -6.4460  -18.8840    3.1900 C.3    45  SER45       0.2089
      6  OG        -6.4940  -19.1060    4.5780 O.3    45  SER45      -0.2183
      7  N        -11.0220  -15.8620    5.7840 N.3    49  LYS49      -0.1245
      8  CA       -10.8960  -16.0690    7.2180 C.3    49  LYS49       0.1561
      9  C        -11.4900  -14.8590    7.9730 C.2    49  LYS49       0.2260
     10  O        -12.2740  -15.0230    8.9360 O.2    49  LYS49      -0.2867
     11  CB        -9.4280  -16.2740    7.6110 C.3    49  LYS49       0.0271
     12  CG        -9.2230  -16.5840    9.0670 C.3    49  LYS49       0.0035
     13  CD        -7.7490  -16.4450    9.4670 C.3    49  LYS49       0.0206
     14  CE        -7.5900  -16.4650   10.9850 C.3    49  LYS49       0.1093
     15  NZ        -8.3920  -15.3780   11.6360 N.3    49  LYS49      -0.1314
     16  N        -18.9570  -14.7800   12.3960 N.3    56  ARG56      -0.1245
     17  CA       -19.0450  -15.7960   13.4650 C.3    56  ARG56       0.1563
     18  C        -18.9730  -15.1180   14.8260 C.2    56  ARG56       0.2260
     19  O        -19.7120  -15.4350   15.7740 O.2    56  ARG56      -0.2867
     20  CB       -17.8920  -16.7880   13.3720 C.3    56  ARG56       0.0307
     21  CG       -17.8660  -17.6640   12.1120 C.3    56  ARG56       0.0489
     22  CD       -16.4470  -18.2460   11.9000 C.3    56  ARG56       0.2205
     23  NE       -16.2660  -19.3950   12.7610 N.pl3  56  ARG56      -0.0865
     24  CZ       -15.1160  -19.8430   13.2480 C.cat  56  ARG56       0.5346
     25  NH1      -13.9630  -19.2700   12.9970 N.pl3  56  ARG56       0.1354
     26  NH2      -15.1370  -20.9220   14.0040 N.pl3  56  ARG56       0.1354
     27  N         -8.4730  -29.0460    3.5710 N.3   124  LYS124     -0.1245
     28  CA        -8.5990  -28.5120    4.9350 C.3   124  LYS124      0.1561
     29  C         -9.5220  -27.2960    4.9160 C.2   124  LYS124      0.2260
     30  O        -10.2810  -27.0310    5.8510 O.2   124  LYS124     -0.2867
     31  CB        -7.2330  -28.1430    5.5200 C.3   124  LYS124      0.0271
     32  CG        -7.2790  -27.2200    6.7490 C.3   124  LYS124      0.0035
     33  CD        -5.8870  -26.7070    7.1100 C.3   124  LYS124      0.0206
     34  CE        -5.9740  -25.4870    8.0000 C.3   124  LYS124      0.1093
     35  NZ        -6.8220  -24.3990    7.3870 N.3   124  LYS124     -0.1314
     36  N        -17.3140  -26.8410    8.5640 N.3   131  ARG131     -0.1231
     37  CA       -17.3590  -26.7590   10.0060 C.3   131  ARG131      0.1694
     38  C        -17.9980  -25.4600   10.4680 C.2   131  ARG131      0.2592
     39  O        -18.6450  -25.4360   11.5260 O.2   131  ARG131     -0.2718
     40  CB       -15.9680  -26.8770   10.6100 C.3   131  ARG131      0.0321
     41  CG       -15.9100  -26.5680   12.0950 C.3   131  ARG131      0.0489
     42  CD       -14.6210  -27.0860   12.6710 C.3   131  ARG131      0.2205
     43  NE       -13.4720  -26.4580   12.0300 N.pl3 131  ARG131     -0.0865
     44  CZ       -12.7850  -25.4220   12.5250 C.cat 131  ARG131      0.5346
     45  NH1      -13.1030  -24.8760   13.7030 N.pl3 131  ARG131      0.1354
     46  NH2      -11.7530  -24.9300   11.8250 N.pl3 131  ARG131      0.1354
     47  N        -17.7960  -24.3810    9.7110 N.am  132  TYR132     -0.1976
     48  CA       -18.3920  -23.1030   10.0800 C.3   132  TYR132      0.1639
     49  C        -19.8970  -23.1840    9.9460 C.2   132  TYR132      0.2290
     50  O        -20.6280  -22.6760   10.7990 O.2   132  TYR132     -0.2864
     51  CB       -17.7880  -21.9220    9.2890 C.3   132  TYR132      0.0560
     52  CG       -16.2670  -21.7580    9.4750 C.ar  132  TYR132     -0.0198
     53  CD1      -15.6720  -22.0200   10.6750 C.ar  132  TYR132     -0.0009
     54  CD2      -15.4410  -21.3380    8.4290 C.ar  132  TYR132     -0.0009
     55  CE1      -14.3300  -21.8910   10.8480 C.ar  132  TYR132      0.0417
     56  CE2      -14.0650  -21.2090    8.6040 C.ar  132  TYR132      0.0417
     57  CZ       -13.5290  -21.4950    9.8400 C.ar  132  TYR132      0.1957
     58  OH       -12.1850  -21.3950   10.1120 O.3   132  TYR132     -0.2866
     59  N        -21.3900  -24.9740   12.8790 N.3   135  GLU135     -0.1245
     60  CA       -21.4700  -24.2060   14.1000 C.3   135  GLU135      0.1567
     61  C        -22.8620  -23.6240   14.2680 C.2   135  GLU135      0.2260
     62  O        -23.2720  -23.3210   15.3850 O.2   135  GLU135     -0.2867
     63  CB       -20.3990  -23.1030   14.1240 C.3   135  GLU135      0.0388
     64  CG       -19.0310  -23.6790   14.3360 C.3   135  GLU135      0.1160
     65  CD       -17.8900  -22.6700   14.3200 C.2   135  GLU135      0.3649
     66  OE1      -17.9510  -21.6030   13.6480 O.co2 135  GLU135     -0.2457
     67  OE2      -16.8910  -22.9950   14.9880 O.co2 135  GLU135     -0.2457
     68  N         -1.5130  -27.4570   11.1150 N.3   173  GLY173     -0.1225
     69  CA        -2.7190  -26.6380   11.1320 C.3   173  GLY173      0.1811
     70  C         -3.9420  -27.4890   10.9100 C.2   173  GLY173      0.2280
     71  O         -4.9650  -27.3320   11.5800 O.2   173  GLY173     -0.2866
     72  N         -4.6530  -29.4540   14.0590 N.3   176  LEU176     -0.1231
     73  CA        -5.2920  -28.5470   15.0320 C.3   176  LEU176      0.1693
     74  C         -6.7840  -28.3830   14.7750 C.2   176  LEU176      0.2592
     75  O         -7.5910  -28.4770   15.7070 O.2   176  LEU176     -0.2718
     76  CB        -4.6330  -27.1650   14.9810 C.3   176  LEU176      0.0284
     77  CG        -5.0710  -26.0860   15.9780 C.3   176  LEU176      0.0019
     78  CD1       -5.0060  -26.5490   17.4280 C.3   176  LEU176      0.0001
     79  CD2       -4.1670  -24.8610   15.7920 C.3   176  LEU176      0.0001
     80  N         -7.1450  -28.1410   13.5070 N.am  177  ASN177     -0.1974
     81  CA        -8.5440  -27.8750   13.1380 C.3   177  ASN177      0.1688
     82  C         -9.4480  -29.1030   13.1410 C.2   177  ASN177      0.2292
     83  O        -10.6370  -29.0180   13.4440 O.2   177  ASN177     -0.2864
     84  CB        -8.6310  -27.2130   11.7630 C.3   177  ASN177      0.1181
     85  CG        -8.1670  -25.7480   11.7640 C.2   177  ASN177      0.2629
     86  OD1       -7.5990  -25.2460   12.7540 O.2   177  ASN177     -0.2716
     87  ND2       -8.3740  -25.0720   10.6290 N.am  177  ASN177     -0.0877
     88  N        -10.2390  -29.8130   16.6440 N.3   180  VAL180     -0.1245
     89  CA       -11.3260  -28.9120   17.0520 C.3   180  VAL180      0.1561
     90  C        -12.6590  -29.4080   16.5180 C.2   180  VAL180      0.2260
     91  O        -13.6640  -29.3650   17.2320 O.2   180  VAL180     -0.2867
     92  CB       -11.0700  -27.4590   16.5920 C.3   180  VAL180      0.0252
     93  CG1      -12.2600  -26.5750   16.8470 C.3   180  VAL180      0.0019
     94  CG2       -9.8640  -26.9020   17.3090 C.3   180  VAL180      0.0019
     95  N        -13.7110  -32.0940   18.8790 N.3   183  TYR183     -0.1227
     96  CA       -14.0470  -31.6350   20.2170 C.3   183  TYR183      0.1736
     97  C        -15.3360  -30.8400   20.2480 C.2   183  TYR183      0.2595
     98  O        -16.1740  -31.0610   21.1110 O.2   183  TYR183     -0.2718
     99  CB       -12.9390  -30.7820   20.8210 C.3   183  TYR183      0.0548
    100  CG       -13.2480  -30.4020   22.2480 C.ar  183  TYR183     -0.0200
    101  CD1      -12.8760  -31.2360   23.3170 C.ar  183  TYR183     -0.0009
    102  CD2      -13.9560  -29.2420   22.5350 C.ar  183  TYR183     -0.0009
    103  CE1      -13.1850  -30.9020   24.6280 C.ar  183  TYR183      0.0417
    104  CE2      -14.2640  -28.8990   23.8380 C.ar  183  TYR183      0.0417
    105  CZ       -13.8690  -29.7280   24.8740 C.ar  183  TYR183      0.1957
    106  OH       -14.1750  -29.3710   26.1490 O.3   183  TYR183     -0.2866
    107  N        -15.4920  -29.8980   19.3360 N.am  184  GLU184     -0.1979
    108  CA       -16.5920  -28.9500   19.4440 C.3   184  GLU184      0.1602
    109  C        -17.7940  -29.3760   18.6330 C.2   184  GLU184      0.2287
    110  O        -18.9100  -29.3550   19.1430 O.2   184  GLU184     -0.2864
    111  CB       -16.1260  -27.5670   18.9970 C.3   184  GLU184      0.0415
    112  CG       -17.1380  -26.4380   19.2260 C.3   184  GLU184      0.1163
    113  CD       -16.6830  -25.1190   18.6270 C.2   184  GLU184      0.3649
    114  OE1      -17.5730  -24.3640   18.1920 O.co2 184  GLU184     -0.2457
    115  OE2      -15.4510  -24.8450   18.5640 O.co2 184  GLU184     -0.2457
    116  N          4.6460  -22.0880   16.5520 N.3   220  LEU220     -0.1231
    117  CA         3.4390  -21.3570   16.8990 C.3   220  LEU220      0.1693
    118  C          2.2620  -22.3150   16.9620 C.2   220  LEU220      0.2591
    119  O          1.5600  -22.3620   17.9780 O.2   220  LEU220     -0.2718
    120  CB         3.1520  -20.2470   15.8940 C.3   220  LEU220      0.0284
    121  CG         2.1980  -19.1000   16.2780 C.3   220  LEU220      0.0019
    122  CD1        2.5030  -17.8990   15.3420 C.3   220  LEU220      0.0001
    123  CD2        0.6980  -19.4410   16.2430 C.3   220  LEU220      0.0001
    124  N          2.0580  -23.0890   15.8930 N.am  221  ILE221     -0.1980
    125  CA         0.9210  -24.0140   15.8330 C.3   221  ILE221      0.1595
    126  C          1.0340  -25.1270   16.8850 C.2   221  ILE221      0.2287
    127  O          0.0210  -25.6040   17.4020 O.2   221  ILE221     -0.2864
    128  CB         0.7380  -24.6200   14.4240 C.3   221  ILE221      0.0276
    129  CG1        0.2720  -23.5370   13.4520 C.3   221  ILE221      0.0022
    130  CG2       -0.3120  -25.7270   14.4270 C.3   221  ILE221      0.0022
    131  CD1        0.2070  -23.9670   11.9950 C.3   221  ILE221      0.0001
    132  N         -0.2520  -23.8920   20.0580 N.3   224  LEU224     -0.1245
    133  CA        -1.7270  -23.9130   20.0590 C.3   224  LEU224      0.1561
    134  C         -2.3070  -25.3150   20.2930 C.2   224  LEU224      0.2260
    135  O         -3.3820  -25.4640   20.8950 O.2   224  LEU224     -0.2867
    136  CB        -2.3010  -23.3790   18.7380 C.3   224  LEU224      0.0270
    137  CG        -1.9280  -21.9690   18.2560 C.3   224  LEU224      0.0019
    138  CD1       -2.1950  -21.8260   16.7620 C.3   224  LEU224      0.0001
    139  CD2       -2.6650  -20.8660   19.0230 C.3   224  LEU224      0.0001
    140  N         -2.1330  -25.8100   24.0550 N.3   227  ASP227     -0.1225
    141  CA        -3.1740  -25.0370   24.7660 C.3   227  ASP227      0.1805
    142  C         -4.4850  -25.7900   24.7730 C.2   227  ASP227      0.2597
    143  O         -5.1020  -26.0030   25.8330 O.2   227  ASP227     -0.2718
    144  CB        -3.5200  -23.7100   24.0690 C.3   227  ASP227      0.1424
    145  CG        -2.3840  -22.7370   24.0180 C.2   227  ASP227      0.3668
    146  OD1       -1.6050  -22.6210   25.0080 O.co2 227  ASP227     -0.2456
    147  OD2       -2.3020  -22.0670   22.9600 O.co2 227  ASP227     -0.2456
    148  N         -4.9370  -26.1240   23.5580 N.am  228  ASN228     -0.1974
    149  CA        -6.1440  -26.9010   23.3690 C.3   228  ASN228      0.1688
    150  C         -6.0970  -28.1480   24.2470 C.2   228  ASN228      0.2292
    151  O         -7.0520  -28.4120   24.9750 O.2   228  ASN228     -0.2864
    152  CB        -6.3000  -27.3250   21.9190 C.3   228  ASN228      0.1181
    153  CG        -6.7570  -26.1960   20.9980 C.2   228  ASN228      0.2629
    154  OD1       -6.9470  -25.0540   21.4110 O.2   228  ASN228     -0.2716
    155  ND2       -6.9570  -26.5410   19.7210 N.am  228  ASN228     -0.0877
    156  N         -6.3550  -27.1990   28.0530 N.3   231  LEU231     -0.1231
    157  CA        -7.7130  -26.6920   28.2720 C.3   231  LEU231      0.1693
    158  C         -8.7850  -27.8010   28.2560 C.2   231  LEU231      0.2592
    159  O         -9.6460  -27.8600   29.1350 O.2   231  LEU231     -0.2718
    160  CB        -8.0410  -25.6320   27.2090 C.3   231  LEU231      0.0284
    161  CG        -9.4730  -25.0880   27.2240 C.3   231  LEU231      0.0019
    162  CD1       -9.8120  -24.4690   28.5820 C.3   231  LEU231      0.0001
    163  CD2       -9.6980  -24.0900   26.0960 C.3   231  LEU231      0.0001
    164  N         -8.7350  -28.6590   27.2390 N.am  232  TRP232     -0.1976
    165  CA        -9.7090  -29.7220   27.0650 C.3   232  TRP232      0.1640
    166  C         -9.5970  -30.7570   28.1640 C.2   232  TRP232      0.2290
    167  O        -10.5790  -30.9960   28.8580 O.2   232  TRP232     -0.2864
    168  CB        -9.5270  -30.3840   25.7010 C.3   232  TRP232      0.0576
    169  CG        -9.8970  -29.5090   24.5080 C.ar  232  TRP232      0.0006
    170  CD1      -10.6950  -28.4070   24.5160 C.ar  232  TRP232      0.0946
    171  CD2       -9.5310  -29.7250   23.1430 C.ar  232  TRP232      0.0152
    172  NE1      -10.8350  -27.9050   23.2470 N.ar  232  TRP232     -0.2442
    173  CE2      -10.1240  -28.6910   22.3820 C.ar  232  TRP232      0.0810
    174  CE3       -8.7460  -30.6800   22.4850 C.ar  232  TRP232      0.0012
    175  CZ2       -9.9560  -28.5860   20.9940 C.ar  232  TRP232      0.0191
    176  CZ3       -8.5740  -30.5690   21.0870 C.ar  232  TRP232      0.0001
    177  CH2       -9.1830  -29.5400   20.3700 C.ar  232  TRP232      0.0015
@<TRIPOS>BOND
     1     1     2    1
     2     2     5    1
     3     2     3    1
     4     5     6    1
     5    27    28    1
     6     3     4    2
     7    29    28    1
     8    29    30    2
     9    28    31    1
    10    31    32    1
    11     7     8    1
    12    32    33    1
    13    33    34    1
    14     8    11    1
    15     8     9    1
    16    35    34    1
    17    11    12    1
    18     9    10    2
    19    54    56   ar
    20    54    52   ar
    21    36    37    1
    22    56    57   ar
    23    12    13    1
    24    51    52    1
    25    51    48    1
    26    13    14    1
    27    52    53   ar
    28    47    48    1
    29    47    38   am
    30    57    58    1
    31    57    55   ar
    32    49    48    1
    33    49    50    2
    34    37    38    1
    35    37    40    1
    36    38    39    2
    37    40    41    1
    38    87    85   am
    39    53    55   ar
    40    70    69    1
    41    70    71    2
    42    14    15    1
    43    68    69    1
    44    84    85    1
    45    84    81    1
    46    85    86    2
    47    46    44    1
    48    22    21    1
    49    22    23    1
    50   131   129    1
    51    43    44    2
    52    43    42    1
    53    41    42    1
    54    21    20    1
    55    16    17    1
    56    44    45    1
    57    23    24    2
    58    59    60    1
    59    25    24    1
    60    81    82    1
    61    81    80    1
    62    82    83    2
    63    24    26    1
    64    20    17    1
    65   129   128    1
    66    17    18    1
    67    80    74   am
    68    66    65   ar
    69    72    73    1
    70    60    63    1
    71    60    61    1
    72    63    64    1
    73    61    62    2
    74    65    64    1
    75    65    67   ar
    76   128   130    1
    77   128   125    1
    78    74    73    1
    79    74    75    2
    80    18    19    2
    81    76    73    1
    82    76    77    1
    83   122   121    1
    84    79    77    1
    85   125   124    1
    86   125   126    1
    87   124   118   am
    88   120   121    1
    89   120   117    1
    90    77    78    1
    91   123   121    1
    92    90    89    1
    93    90    91    2
    94   116   117    1
    95    92    93    1
    96    92    89    1
    97    92    94    1
    98    88    89    1
    99   138   137    1
   100   126   127    2
   101   117   118    1
   102   118   119    2
   103   114   113   ar
   104   137   136    1
   105   137   139    1
   106   115   113   ar
   107   113   112    1
   108   109   110    2
   109   109   108    1
   110   136   133    1
   111    95    96    1
   112   111   112    1
   113   111   108    1
   114   107   108    1
   115   107    97   am
   116   155   153   am
   117   132   133    1
   118   133   134    1
   119    96    97    1
   120    96    99    1
   121    97    98    2
   122   134   135    2
   123   177   175   ar
   124   177   176   ar
   125    99   100    1
   126   175   173   ar
   127   153   154    2
   128   153   152    1
   129   176   174   ar
   130   152   149    1
   131   100   102   ar
   132   100   101   ar
   133   173   171   ar
   134   173   172   ar
   135   174   171   ar
   136   102   104   ar
   137   147   145   ar
   138   171   169   ar
   139   172   170   ar
   140   101   103   ar
   141   149   148    1
   142   149   150    1
   143   148   142   am
   144   104   105   ar
   145   145   144    1
   146   145   146   ar
   147   140   141    1
   148   144   141    1
   149   150   151    2
   150   169   170   ar
   151   169   168    1
   152   103   105   ar
   153   141   142    1
   154   142   143    2
   155   105   106    1
   156   168   165    1
   157   163   161    1
   158   165   164    1
   159   165   166    1
   160   160   161    1
   161   160   157    1
   162   161   162    1
   163   164   158   am
   164   156   157    1
   165   166   167    2
   166   158   157    1
   167   158   159    2
