@<TRIPOS>MOLECULE
tmp/2c76A01.pdb
 142 138 0 0 0
SMALL
GASTEIGER

@<TRIPOS>ATOM
      1  N         57.0240  151.1830   14.7650 N.3    55  GLY55      -0.1210
      2  CA        56.3830  150.2820   15.7290 C.3    55  GLY55       0.1956
      3  C         56.9200  150.5100   17.1310 C.2    55  GLY55       0.2612
      4  O         57.1200  151.6610   17.5510 O.2    55  GLY55      -0.2717
      5  N         57.1560  149.4270   17.8680 N.am   56  GLY56      -0.1942
      6  CA        57.7050  149.5410   19.2230 C.3    56  GLY56       0.2014
      7  C         58.9820  150.3630   19.2320 C.2    56  GLY56       0.2640
      8  O         59.8260  150.2150   18.3430 O.2    56  GLY56      -0.2714
      9  N         59.1210  151.2420   20.2240 N.am   57  SER57      -0.1935
     10  CA        60.2440  152.1750   20.2550 C.3    57  SER57       0.2055
     11  C         60.7990  152.4200   21.6570 C.2    57  SER57       0.2643
     12  O         62.0150  152.3980   21.8620 O.2    57  SER57      -0.2714
     13  CB        59.8170  153.5050   19.6310 C.3    57  SER57       0.2130
     14  OG        60.9360  154.3320   19.3920 O.3    57  SER57      -0.2179
     15  N         59.9060  152.6420   22.6170 N.am   58  TYR58      -0.1973
     16  CA        60.3020  153.0740   23.9590 C.3    58  TYR58       0.1639
     17  C         60.7300  151.9450   24.8640 C.2    58  TYR58       0.2290
     18  O         60.1230  150.8690   24.8750 O.2    58  TYR58      -0.2864
     19  CB        59.1700  153.8840   24.6130 C.3    58  TYR58       0.0560
     20  CG        58.8230  155.0630   23.7530 C.ar   58  TYR58      -0.0198
     21  CD1       57.6660  155.0710   22.9710 C.ar   58  TYR58      -0.0009
     22  CD2       59.7090  156.1410   23.6520 C.ar   58  TYR58      -0.0009
     23  CE1       57.3730  156.1540   22.1380 C.ar   58  TYR58       0.0417
     24  CE2       59.4340  157.2290   22.8210 C.ar   58  TYR58       0.0417
     25  CZ        58.2700  157.2260   22.0710 C.ar   58  TYR58       0.1957
     26  OH        58.0250  158.3000   21.2540 O.3    58  TYR58      -0.2866
     27  N         43.8870  157.3880   29.4760 N.3   166  PHE166     -0.1241
     28  CA        44.8930  156.4490   29.9760 C.3   166  PHE166      0.1605
     29  C         44.7020  155.0240   29.4420 C.2   166  PHE166      0.2264
     30  O         45.6450  154.4130   28.9640 O.2   166  PHE166     -0.2867
     31  CB        44.8840  156.4630   31.5050 C.3   166  PHE166      0.0534
     32  CG        45.7930  155.4430   32.1410 C.ar  166  PHE166     -0.0203
     33  CD1       47.1740  155.5360   32.0110 C.ar  166  PHE166     -0.0042
     34  CD2       45.2570  154.4090   32.9050 C.ar  166  PHE166     -0.0042
     35  CE1       48.0130  154.5960   32.6270 C.ar  166  PHE166     -0.0003
     36  CE2       46.0850  153.4560   33.5130 C.ar  166  PHE166     -0.0003
     37  CZ        47.4650  153.5540   33.3720 C.ar  166  PHE166     -0.0000
     38  N         45.3620  154.8720   25.6730 N.3   169  LEU169     -0.1231
     39  CA        46.8030  155.0330   25.4150 C.3   169  LEU169      0.1693
     40  C         47.6070  153.7840   25.7720 C.2   169  LEU169      0.2592
     41  O         48.5720  153.4350   25.0810 O.2   169  LEU169     -0.2718
     42  CB        47.3200  156.2330   26.2100 C.3   169  LEU169      0.0284
     43  CG        48.7880  156.6420   26.0980 C.3   169  LEU169      0.0019
     44  CD1       49.1760  156.9030   24.6360 C.3   169  LEU169      0.0001
     45  CD2       49.0280  157.8780   26.9590 C.3   169  LEU169      0.0001
     46  N         47.2120  153.1300   26.8610 N.am  170  CYS170     -0.1970
     47  CA        47.8840  151.9470   27.3670 C.3   170  CYS170      0.1712
     48  C         47.7240  150.7330   26.4580 C.2   170  CYS170      0.2296
     49  O         48.6910  150.0100   26.2010 O.2   170  CYS170     -0.2864
     50  CB        47.3240  151.5940   28.7370 C.3   170  CYS170      0.0983
     51  SG        48.1000  152.4740   30.0930 S.3   170  CYS170     -0.0798
     52  N         54.2890  152.8600   34.2300 N.3   196  ILE196     -0.1231
     53  CA        53.8820  152.6930   32.8370 C.3   196  ILE196      0.1692
     54  C         53.7120  154.0250   32.1020 C.2   196  ILE196      0.2591
     55  O         54.0380  154.1240   30.9150 O.2   196  ILE196     -0.2718
     56  CB        52.6400  151.7580   32.6740 C.3   196  ILE196      0.0266
     57  CG1       52.5720  151.2080   31.2380 C.3   196  ILE196      0.0019
     58  CG2       51.3350  152.4560   33.1220 C.3   196  ILE196      0.0020
     59  CD1       51.4470  150.2120   30.9970 C.3   196  ILE196      0.0001
     60  N         53.2460  155.0480   32.8130 N.am  197  ILE197     -0.1980
     61  CA        52.9080  156.3300   32.1810 C.3   197  ILE197      0.1595
     62  C         54.0780  157.2980   32.0720 C.2   197  ILE197      0.2287
     63  O         54.0270  158.2360   31.2760 O.2   197  ILE197     -0.2864
     64  CB        51.7440  157.0650   32.9010 C.3   197  ILE197      0.0276
     65  CG1       52.2000  157.6590   34.2350 C.3   197  ILE197      0.0022
     66  CG2       50.5430  156.1550   33.0460 C.3   197  ILE197      0.0022
     67  CD1       51.4500  158.9090   34.6170 C.3   197  ILE197      0.0001
     68  N         58.6370  155.1740   28.9680 N.3   204  GLN204     -0.1245
     69  CA        58.9300  156.0600   27.8340 C.3   204  GLN204      0.1566
     70  C         60.2750  156.7790   27.9630 C.2   204  GLN204      0.2260
     71  O         60.5410  157.7370   27.2320 O.2   204  GLN204     -0.2867
     72  CB        57.8090  157.0890   27.6380 C.3   204  GLN204      0.0367
     73  CG        56.6160  156.5830   26.8170 C.3   204  GLN204      0.0905
     74  CD        55.8150  155.4930   27.5020 C.2   204  GLN204      0.2608
     75  OE1       55.5640  154.4370   26.9140 O.2   204  GLN204     -0.2717
     76  NE2       55.3930  155.7430   28.7390 N.am  204  GLN204     -0.0878
     77  N         50.6530  155.0790   14.2720 N.3   294  LYS294     -0.1245
     78  CA        51.7820  155.8330   14.8200 C.3   294  LYS294      0.1561
     79  C         52.2050  156.8490   13.7750 C.2   294  LYS294      0.2260
     80  O         52.4900  156.4770   12.6450 O.2   294  LYS294     -0.2867
     81  CB        52.9450  154.9000   15.1810 C.3   294  LYS294      0.0271
     82  CG        54.0750  155.5910   15.9430 C.3   294  LYS294      0.0035
     83  CD        55.1300  154.5650   16.3740 C.3   294  LYS294      0.0206
     84  CE        56.2960  155.2220   17.1000 C.3   294  LYS294      0.1093
     85  NZ        55.9970  155.5940   18.5070 N.3   294  LYS294     -0.1314
     86  N         47.9980  161.7520   22.4630 N.3   324  TYR324     -0.1241
     87  CA        49.2980  161.7550   23.1450 C.3   324  TYR324      0.1605
     88  C         50.4640  161.8780   22.1760 C.2   324  TYR324      0.2264
     89  O         50.5210  161.1770   21.1560 O.2   324  TYR324     -0.2867
     90  CB        49.4660  160.4830   23.9780 C.3   324  TYR324      0.0534
     91  CG        50.6280  160.5190   24.9450 C.ar  324  TYR324     -0.0201
     92  CD1       50.4980  161.1200   26.1990 C.ar  324  TYR324     -0.0009
     93  CD2       51.8480  159.9460   24.6080 C.ar  324  TYR324     -0.0009
     94  CE1       51.5640  161.1500   27.0970 C.ar  324  TYR324      0.0417
     95  CE2       52.9310  159.9760   25.5010 C.ar  324  TYR324      0.0417
     96  CZ        52.7710  160.5800   26.7400 C.ar  324  TYR324      0.1957
     97  OH        53.8200  160.6050   27.6360 O.3   324  TYR324     -0.2866
     98  N         54.9770  162.7110   21.9180 N.3   326  LEU326     -0.1245
     99  CA        56.3050  162.8930   22.4990 C.3   326  LEU326      0.1561
    100  C         57.2230  163.5060   21.4490 C.2   326  LEU326      0.2260
    101  O         57.0500  163.2950   20.2540 O.2   326  LEU326     -0.2867
    102  CB        56.8800  161.5570   22.9500 C.3   326  LEU326      0.0270
    103  CG        56.2140  160.8640   24.1430 C.3   326  LEU326      0.0019
    104  CD1       56.6540  159.4120   24.2170 C.3   326  LEU326      0.0001
    105  CD2       56.5230  161.6000   25.4560 C.3   326  LEU326      0.0001
    106  N         50.1730  159.2360   18.6620 N.3   341  PHE341     -0.1241
    107  CA        49.4070  158.0170   18.4390 C.3   341  PHE341      0.1605
    108  C         47.9520  158.3690   18.1650 C.2   341  PHE341      0.2264
    109  O         47.3570  159.1600   18.9120 O.2   341  PHE341     -0.2867
    110  CB        49.4290  157.1200   19.6790 C.3   341  PHE341      0.0534
    111  CG        50.7510  156.4680   19.9540 C.ar  341  PHE341     -0.0203
    112  CD1       51.4410  156.7570   21.1310 C.ar  341  PHE341     -0.0042
    113  CD2       51.2960  155.5430   19.0620 C.ar  341  PHE341     -0.0042
    114  CE1       52.6660  156.1380   21.4220 C.ar  341  PHE341     -0.0003
    115  CE2       52.5270  154.9320   19.3300 C.ar  341  PHE341     -0.0003
    116  CZ        53.2130  155.2240   20.5140 C.ar  341  PHE341     -0.0000
    117  N         49.2430  147.9540   20.2160 N.3   396  TYR396     -0.1241
    118  CA        50.5760  147.3860   20.5040 C.3   396  TYR396      0.1605
    119  C         50.5280  145.8880   20.7710 C.2   396  TYR396      0.2264
    120  O         51.4740  145.1500   20.4700 O.2   396  TYR396     -0.2867
    121  CB        51.1800  148.0270   21.7560 C.3   396  TYR396      0.0534
    122  CG        50.8230  149.4730   21.9960 C.ar  396  TYR396     -0.0201
    123  CD1       50.9550  150.4290   20.9850 C.ar  396  TYR396     -0.0009
    124  CD2       50.3930  149.8950   23.2580 C.ar  396  TYR396     -0.0009
    125  CE1       50.6210  151.7670   21.2120 C.ar  396  TYR396      0.0417
    126  CE2       50.0780  151.2320   23.4980 C.ar  396  TYR396      0.0417
    127  CZ        50.1870  152.1570   22.4740 C.ar  396  TYR396      0.1957
    128  OH        49.8760  153.4830   22.7080 O.3   396  TYR396     -0.2866
    129  N         55.1460  144.6070   25.5930 N.3   433  TRP433     -0.1241
    130  CA        56.3050  145.4230   25.2400 C.3   433  TRP433      0.1605
    131  C         57.4520  144.5630   24.6980 C.2   433  TRP433      0.2264
    132  O         57.4360  143.3250   24.8030 O.2   433  TRP433     -0.2867
    133  CB        56.7890  146.1970   26.4800 C.3   433  TRP433      0.0550
    134  CG        55.7800  147.1660   27.0620 C.ar  433  TRP433      0.0003
    135  CD1       54.5820  146.8630   27.6470 C.ar  433  TRP433      0.0946
    136  CD2       55.8990  148.5950   27.1110 C.ar  433  TRP433      0.0152
    137  NE1       53.9490  148.0170   28.0560 N.ar  433  TRP433     -0.2442
    138  CE2       54.7350  149.0910   27.7370 C.ar  433  TRP433      0.0810
    139  CE3       56.8800  149.5030   26.6860 C.ar  433  TRP433      0.0012
    140  CZ2       54.5210  150.4620   27.9540 C.ar  433  TRP433      0.0191
    141  CZ3       56.6690  150.8740   26.9070 C.ar  433  TRP433      0.0001
    142  CH2       55.4950  151.3310   27.5290 C.ar  433  TRP433      0.0015
@<TRIPOS>BOND
     1    80    79    2
     2    79    78    1
     3    77    78    1
     4     1     2    1
     5    78    81    1
     6    81    82    1
     7     2     3    1
     8    82    83    1
     9    83    84    1
    10    84    85    1
    11     3     4    2
    12     3     5   am
    13     5     6    1
    14   108   107    1
    15   108   109    2
    16     8     7    2
    17   107   106    1
    18   107   110    1
    19   113   115   ar
    20   113   111   ar
    21     6     7    1
    22     7     9   am
    23   115   116   ar
    24    14    13    1
    25    13    10    1
    26   110   111    1
    27   111   112   ar
    28   117   118    1
    29     9    10    1
    30   101   100    2
    31    10    11    1
    32   120   119    2
    33   118   119    1
    34   118   121    1
    35   116   114   ar
    36   123   125   ar
    37   123   122   ar
    38   112   114   ar
    39    89    88    2
    40   125   127   ar
    41    26    25    1
    42   100    99    1
    43    11    12    2
    44    11    15   am
    45   121   122    1
    46    98    99    1
    47   122   124   ar
    48    25    23   ar
    49    25    24   ar
    50    23    21   ar
    51    88    87    1
    52    86    87    1
    53   127   128    1
    54   127   126   ar
    55    99   102    1
    56    15    16    1
    57    24    22   ar
    58   102   103    1
    59    21    20   ar
    60    87    90    1
    61   124   126   ar
    62    22    20   ar
    63    20    19    1
    64    16    19    1
    65    16    17    1
    66    90    91    1
    67   103   104    1
    68   103   105    1
    69    93    91   ar
    70    93    95   ar
    71    44    43    1
    72   131   132    2
    73   131   130    1
    74    17    18    2
    75    91    92   ar
    76    41    40    2
    77   130   129    1
    78   130   133    1
    79    39    38    1
    80    39    40    1
    81    39    42    1
    82    95    96   ar
    83    40    46   am
    84    43    42    1
    85    43    45    1
    86    92    94   ar
    87    49    48    2
    88    48    47    1
    89   133   134    1
    90   139   141   ar
    91   139   136   ar
    92    96    94   ar
    93    96    97    1
    94    73    74    1
    95    73    72    1
    96    46    47    1
    97   141   142   ar
    98    75    74    2
    99   134   136   ar
   100   134   135   ar
   101   136   138   ar
   102    71    70    2
   103    47    50    1
   104    74    76   am
   105   142   140   ar
   106    72    69    1
   107   135   137   ar
   108   138   140   ar
   109   138   137   ar
   110    69    70    1
   111    69    68    1
   112    50    51    1
   113    30    29    2
   114    29    28    1
   115    27    28    1
   116    28    31    1
   117    55    54    2
   118    59    57    1
   119    57    56    1
   120    63    62    2
   121    31    32    1
   122    33    32   ar
   123    33    35   ar
   124    62    61    1
   125    54    60   am
   126    54    53    1
   127    32    34   ar
   128    61    60    1
   129    61    64    1
   130    35    37   ar
   131    56    53    1
   132    56    58    1
   133    53    52    1
   134    64    66    1
   135    64    65    1
   136    34    36   ar
   137    37    36   ar
   138    65    67    1
