@<TRIPOS>MOLECULE
tmp/2c7eE00.pdb
 184 177 0 0 0
SMALL
GASTEIGER

@<TRIPOS>ATOM
      1  N        -43.7500  -10.4620  -18.2200 N.3    29  THR29      -0.1203
      2  CA       -44.4800   -9.9980  -19.3870 C.3    29  THR29       0.1994
      3  C        -45.5960  -10.9480  -19.8200 C.2    29  THR29       0.2618
      4  O        -46.2350  -10.7110  -20.8450 O.2    29  THR29      -0.2717
      5  CB       -43.5570   -9.8380  -20.6110 C.3    29  THR29       0.1784
      6  OG1      -43.1920  -11.1360  -21.0990 O.3    29  THR29      -0.2211
      7  CG2      -42.2920   -9.0550  -20.2530 C.3    29  THR29       0.0376
      8  N        -45.8480  -12.0070  -19.0510 N.am   30  LEU30      -0.1965
      9  CA       -46.8690  -12.9730  -19.4440 C.3    30  LEU30       0.1728
     10  C        -48.3460  -12.5970  -19.2530 C.2    30  LEU30       0.2617
     11  O        -48.7690  -12.1780  -18.1800 O.2    30  LEU30      -0.2715
     12  CB       -46.6130  -14.3120  -18.7450 C.3    30  LEU30       0.0311
     13  CG       -47.5230  -15.4780  -19.1400 C.3    30  LEU30       0.0022
     14  CD1      -47.2220  -15.9010  -20.5810 C.3    30  LEU30       0.0001
     15  CD2      -47.3020  -16.6580  -18.2000 C.3    30  LEU30       0.0001
     16  N        -49.1210  -12.7570  -20.3200 N.am   31  GLY31      -0.1941
     17  CA       -50.5470  -12.5050  -20.2480 C.3    31  GLY31       0.1998
     18  C        -51.0570  -11.0950  -20.4240 C.2    31  GLY31       0.2480
     19  O        -50.2870  -10.1650  -20.6080 O.2    31  GLY31      -0.2729
     20  N        -52.3800  -10.9180  -20.3600 N.am   32  PRO32      -0.2726
     21  CA       -53.0300   -9.6120  -20.5150 C.3    32  PRO32       0.1402
     22  C        -52.5700   -8.5540  -19.5170 C.2    32  PRO32       0.2269
     23  O        -52.6290   -7.3610  -19.8100 O.2    32  PRO32      -0.2865
     24  CB       -54.5220   -9.9430  -20.4060 C.3    32  PRO32       0.0296
     25  CG       -54.5520  -11.1810  -19.5600 C.3    32  PRO32       0.0237
     26  CD       -53.3710  -11.9790  -20.0840 C.3    32  PRO32       0.0939
     27  N        -43.2740   -5.6970  -23.6690 N.3    50  LYS50      -0.1231
     28  CA       -44.0580   -6.6890  -22.9510 C.3    50  LYS50       0.1693
     29  C        -43.9060   -7.9660  -23.7460 C.2    50  LYS50       0.2592
     30  O        -44.6580   -8.9210  -23.5750 O.2    50  LYS50      -0.2718
     31  CB       -45.5310   -6.2910  -22.8860 C.3    50  LYS50       0.0285
     32  CG       -45.7810   -5.0990  -21.9850 C.3    50  LYS50       0.0035
     33  CD       -47.2620   -4.8210  -21.8070 C.3    50  LYS50       0.0206
     34  CE       -47.4540   -3.6800  -20.8220 C.3    50  LYS50       0.1093
     35  NZ       -48.8860   -3.3470  -20.6600 N.3    50  LYS50      -0.1314
     36  N        -42.9050   -7.9620  -24.6190 N.am   51  ASP51      -0.1960
     37  CA       -42.6030   -9.0960  -25.4780 C.3    51  ASP51       0.1840
     38  C        -41.4680   -9.9450  -24.8880 C.2    51  ASP51       0.2623
     39  O        -40.3380   -9.4800  -24.7350 O.2    51  ASP51      -0.2715
     40  CB       -42.2180   -8.5790  -26.8610 C.3    51  ASP51       0.1450
     41  CG       -41.9660   -9.6870  -27.8440 C.2    51  ASP51       0.3671
     42  OD1      -42.8940  -10.4850  -28.0780 O.co2  51  ASP51      -0.2456
     43  OD2      -40.8400   -9.7590  -28.3830 O.co2  51  ASP51      -0.2456
     44  N        -41.7840  -11.1910  -24.5610 N.am   52  GLY52      -0.1940
     45  CA       -40.8050  -12.0790  -23.9710 C.3    52  GLY52       0.2014
     46  C        -39.5330  -12.3120  -24.7590 C.2    52  GLY52       0.2638
     47  O        -38.4290  -12.2490  -24.2090 O.2    52  GLY52      -0.2714
     48  N        -39.6730  -12.5980  -26.0460 N.am   53  VAL53      -0.1977
     49  CA       -38.5050  -12.8460  -26.8800 C.3    53  VAL53       0.1596
     50  C        -37.5400  -11.6620  -26.8470 C.2    53  VAL53       0.2287
     51  O        -36.3210  -11.8550  -26.7180 O.2    53  VAL53      -0.2864
     52  CB       -38.9080  -13.1280  -28.3290 C.3    53  VAL53       0.0276
     53  CG1      -37.6740  -13.2810  -29.1750 C.3    53  VAL53       0.0022
     54  CG2      -39.7370  -14.3910  -28.3930 C.3    53  VAL53       0.0022
     55  N        -45.0730  -18.6840  -31.1030 N.3    86  ASP86      -0.1225
     56  CA       -45.8120  -18.0770  -30.0080 C.3    86  ASP86       0.1805
     57  C        -45.6160  -18.9670  -28.7970 C.2    86  ASP86       0.2598
     58  O        -45.1830  -20.1070  -28.9340 O.2    86  ASP86      -0.2718
     59  CB       -47.2940  -17.9730  -30.3820 C.3    86  ASP86       0.1424
     60  CG       -48.0880  -17.0690  -29.4390 C.2    86  ASP86       0.3668
     61  OD1      -47.4990  -16.1520  -28.8190 O.co2  86  ASP86      -0.2456
     62  OD2      -49.3200  -17.2590  -29.3330 O.co2  86  ASP86      -0.2456
     63  N        -45.9010  -18.4390  -27.6120 N.am   87  GLY87      -0.1942
     64  CA       -45.7620  -19.2300  -26.4020 C.3    87  GLY87       0.2014
     65  C        -44.3590  -19.3610  -25.8540 C.2    87  GLY87       0.2640
     66  O        -44.0940  -20.2580  -25.0580 O.2    87  GLY87      -0.2714
     67  N        -43.4580  -18.4730  -26.2600 N.am   88  THR88      -0.1936
     68  CA       -42.0810  -18.5400  -25.7820 C.3    88  THR88       0.2028
     69  C        -41.9860  -18.2140  -24.2950 C.2    88  THR88       0.2643
     70  O        -41.1810  -18.8120  -23.5780 O.2    88  THR88      -0.2714
     71  CB       -41.1790  -17.5780  -26.5550 C.3    88  THR88       0.1808
     72  OG1      -41.5340  -16.2300  -26.2290 O.3    88  THR88      -0.2208
     73  CG2      -41.3420  -17.7930  -28.0520 C.3    88  THR88       0.0379
     74  N        -42.7950  -17.2660  -23.8280 N.am   89  THR89      -0.1936
     75  CA       -42.7820  -16.9040  -22.4090 C.3    89  THR89       0.2028
     76  C        -43.3650  -18.0610  -21.5960 C.2    89  THR89       0.2642
     77  O        -42.8290  -18.4250  -20.5400 O.2    89  THR89      -0.2714
     78  CB       -43.5900  -15.6180  -22.1680 C.3    89  THR89       0.1808
     79  OG1      -43.0340  -14.5890  -22.9840 O.3    89  THR89      -0.2208
     80  CG2      -43.5240  -15.1690  -20.6940 C.3    89  THR89       0.0379
     81  N        -44.4560  -18.6450  -22.0980 N.am   90  THR90      -0.1950
     82  CA       -45.0800  -19.7850  -21.4350 C.3    90  THR90       0.1897
     83  C        -44.0600  -20.9130  -21.3250 C.2    90  THR90       0.2313
     84  O        -43.9080  -21.5330  -20.2670 O.2    90  THR90      -0.2863
     85  CB       -46.2880  -20.3010  -22.2220 C.3    90  THR90       0.1794
     86  OG1      -47.3220  -19.3100  -22.2030 O.3    90  THR90      -0.2208
     87  CG2      -46.8120  -21.6130  -21.6160 C.3    90  THR90       0.0378
     88  N        -58.0090  -11.7150  -29.5170 N.3   149  ILE149     -0.1245
     89  CA       -57.3390  -12.1130  -28.2870 C.3   149  ILE149      0.1561
     90  C        -55.8240  -11.9640  -28.3920 C.2   149  ILE149      0.2260
     91  O        -55.1670  -11.5640  -27.4310 O.2   149  ILE149     -0.2867
     92  CB       -57.6510  -13.5810  -27.9430 C.3   149  ILE149      0.0252
     93  CG1      -59.1390  -13.7400  -27.6490 C.3   149  ILE149      0.0019
     94  CG2      -56.8260  -14.0260  -26.7550 C.3   149  ILE149      0.0019
     95  CD1      -59.5440  -15.1660  -27.3190 C.3   149  ILE149      0.0001
     96  N        -57.3970  -21.2070  -22.9880 N.3   413  GLY413     -0.1210
     97  CA       -56.2030  -20.4160  -22.7250 C.3   413  GLY413      0.1956
     98  C        -56.0360  -20.0950  -21.2430 C.2   413  GLY413      0.2612
     99  O        -56.5860  -20.7950  -20.3930 O.2   413  GLY413     -0.2717
    100  N        -55.2720  -19.0490  -20.9280 N.am  414  GLY414     -0.1942
    101  CA       -55.0720  -18.6630  -19.5400 C.3   414  GLY414      0.2014
    102  C        -54.4340  -19.7370  -18.6800 C.2   414  GLY414      0.2639
    103  O        -54.5710  -19.7370  -17.4470 O.2   414  GLY414     -0.2714
    104  N        -53.7300  -20.6560  -19.3340 N.am  415  GLY415     -0.1954
    105  CA       -53.0760  -21.7310  -18.6200 C.3   415  GLY415      0.1869
    106  C        -54.0070  -22.8050  -18.0900 C.2   415  GLY415      0.2309
    107  O        -53.5420  -23.7210  -17.4110 O.2   415  GLY415     -0.2863
    108  N        -47.8210  -21.5740  -15.6120 N.3   449  PRO449     -0.2116
    109  CA       -48.3360  -20.5290  -16.5090 C.3   449  PRO449      0.1372
    110  C        -49.5520  -19.7810  -15.9340 C.2   449  PRO449      0.2244
    111  O        -49.5790  -18.5590  -15.9160 O.2   449  PRO449     -0.2868
    112  CB       -48.6800  -21.3010  -17.7900 C.3   449  PRO449      0.0268
    113  CG       -47.6860  -22.4510  -17.7810 C.3   449  PRO449      0.0207
    114  CD       -47.6840  -22.8680  -16.3120 C.3   449  PRO449      0.0892
    115  N        -49.6480  -15.7580  -14.7210 N.3   453  ILE453     -0.1245
    116  CA       -50.6080  -14.8340  -15.3230 C.3   453  ILE453      0.1561
    117  C        -51.3590  -14.1060  -14.2150 C.2   453  ILE453      0.2260
    118  O        -51.5620  -12.8920  -14.2700 O.2   453  ILE453     -0.2867
    119  CB       -51.6160  -15.5920  -16.2220 C.3   453  ILE453      0.0252
    120  CG1      -50.9210  -16.0140  -17.5200 C.3   453  ILE453      0.0019
    121  CG2      -52.8510  -14.7230  -16.4870 C.3   453  ILE453      0.0019
    122  CD1      -51.7270  -16.9640  -18.3940 C.3   453  ILE453      0.0001
    123  N        -59.9170  -18.6800  -15.2970 N.3   477  TYR477     -0.1227
    124  CA       -59.8670  -17.3110  -14.8120 C.3   477  TYR477      0.1736
    125  C        -59.5540  -16.3560  -15.9480 C.2   477  TYR477      0.2595
    126  O        -58.5440  -16.5090  -16.6250 O.2   477  TYR477     -0.2718
    127  CB       -58.7850  -17.1790  -13.7460 C.3   477  TYR477      0.0548
    128  CG       -58.7130  -15.8070  -13.1060 C.ar  477  TYR477     -0.0200
    129  CD1      -59.7360  -15.3490  -12.2740 C.ar  477  TYR477     -0.0009
    130  CD2      -57.6090  -14.9780  -13.3090 C.ar  477  TYR477     -0.0009
    131  CE1      -59.6610  -14.1070  -11.6570 C.ar  477  TYR477      0.0417
    132  CE2      -57.5220  -13.7290  -12.6970 C.ar  477  TYR477      0.0417
    133  CZ       -58.5500  -13.2980  -11.8700 C.ar  477  TYR477      0.1957
    134  OH       -58.4720  -12.0600  -11.2550 O.3   477  TYR477     -0.2866
    135  N        -60.4270  -15.3750  -16.1600 N.am  478  ASN478     -0.1960
    136  CA       -60.2150  -14.3820  -17.2000 C.3   478  ASN478      0.1819
    137  C        -59.4070  -13.2620  -16.5310 C.2   478  ASN478      0.2621
    138  O        -59.9340  -12.4930  -15.7380 O.2   478  ASN478     -0.2715
    139  CB       -61.5560  -13.8510  -17.7000 C.3   478  ASN478      0.1195
    140  CG       -61.4010  -12.8900  -18.8560 C.2   478  ASN478      0.2630
    141  OD1      -60.4520  -12.1050  -18.8950 O.2   478  ASN478     -0.2716
    142  ND2      -62.3360  -12.9320  -19.7950 N.am  478  ASN478     -0.0877
    143  N        -58.1190  -13.1880  -16.8410 N.am  479  ALA479     -0.1963
    144  CA       -57.2390  -12.1960  -16.2440 C.3   479  ALA479      0.1728
    145  C        -57.5230  -10.7730  -16.7110 C.2   479  ALA479      0.2616
    146  O        -57.1690   -9.8130  -16.0300 O.2   479  ALA479     -0.2715
    147  CB       -55.7950  -12.5660  -16.5270 C.3   479  ALA479      0.0334
    148  N        -58.1550  -10.6230  -17.8690 N.am  480  ALA480     -0.1977
    149  CA       -58.4660   -9.2850  -18.3620 C.3   480  ALA480      0.1597
    150  C        -59.5840   -8.6460  -17.5360 C.2   480  ALA480      0.2287
    151  O        -59.5100   -7.4700  -17.1710 O.2   480  ALA480     -0.2864
    152  CB       -58.8720   -9.3440  -19.8250 C.3   480  ALA480      0.0319
    153  N        -63.6950  -20.3600  -20.4220 N.3   487  MET487     -0.1245
    154  CA       -62.6420  -19.7740  -21.2560 C.3   487  MET487      0.1570
    155  C        -62.9950  -19.7190  -22.7410 C.2   487  MET487      0.2261
    156  O        -62.7330  -18.7120  -23.4070 O.2   487  MET487     -0.2867
    157  CB       -61.3110  -20.5240  -21.0520 C.3   487  MET487      0.0387
    158  CG       -60.7950  -20.5280  -19.6040 C.3   487  MET487      0.0595
    159  SD       -60.6620  -18.8630  -18.8710 S.3   487  MET487     -0.1393
    160  CE       -59.0060  -18.3450  -19.4430 C.3   487  MET487      0.0692
    161  N        -61.0220  -17.0090  -24.9450 N.3   492  ILE492     -0.1231
    162  CA       -59.6300  -17.0870  -24.5170 C.3   492  ILE492      0.1692
    163  C        -59.1240  -18.4660  -24.8960 C.2   492  ILE492      0.2592
    164  O        -59.2490  -19.4200  -24.1290 O.2   492  ILE492     -0.2718
    165  CB       -59.5190  -16.8650  -22.9990 C.3   492  ILE492      0.0266
    166  CG1      -60.2480  -15.5650  -22.6340 C.3   492  ILE492      0.0019
    167  CG2      -58.0480  -16.7820  -22.5820 C.3   492  ILE492      0.0020
    168  CD1      -60.3560  -15.3040  -21.1530 C.3   492  ILE492      0.0001
    169  N        -58.5610  -18.5600  -26.0990 N.am  493  LEU493     -0.1966
    170  CA       -58.0720  -19.8280  -26.6290 C.3   493  LEU493      0.1728
    171  C        -56.6050  -19.7910  -27.0150 C.2   493  LEU493      0.2616
    172  O        -56.0610  -18.7390  -27.3480 O.2   493  LEU493     -0.2715
    173  CB       -58.8550  -20.2130  -27.8890 C.3   493  LEU493      0.0311
    174  CG       -60.3330  -19.8400  -27.9950 C.3   493  LEU493      0.0022
    175  CD1      -60.8210  -20.0840  -29.4190 C.3   493  LEU493      0.0001
    176  CD2      -61.1320  -20.6470  -26.9940 C.3   493  LEU493      0.0001
    177  N        -55.9850  -20.9620  -26.9930 N.am  494  ASP494     -0.1971
    178  CA       -54.5890  -21.0990  -27.3890 C.3   494  ASP494      0.1709
    179  C        -54.5240  -22.2400  -28.4010 C.2   494  ASP494      0.2293
    180  O        -55.2060  -23.2610  -28.2450 O.2   494  ASP494     -0.2864
    181  CB       -53.6860  -21.4660  -26.1970 C.3   494  ASP494      0.1436
    182  CG       -53.4990  -20.3270  -25.2130 C.2   494  ASP494      0.3671
    183  OD1      -53.6470  -19.1490  -25.6060 O.co2 494  ASP494     -0.2456
    184  OD2      -53.1760  -20.6190  -24.0400 O.co2 494  ASP494     -0.2456
@<TRIPOS>BOND
     1    55    56    1
     2    59    56    1
     3    59    60    1
     4    56    57    1
     5    88    89    1
     6    60    62   ar
     7    60    61   ar
     8   175   174    1
     9    53    52    1
    10    58    57    2
    11    57    63   am
    12   179   180    2
    13   179   178    1
    14    54    52    1
    15    90    89    1
    16    90    91    2
    17    43    41   ar
    18    52    49    1
    19    89    92    1
    20    42    41   ar
    21    73    71    1
    22   174   173    1
    23   174   176    1
    24    92    93    1
    25    92    94    1
    26   173   170    1
    27    41    40    1
    28    93    95    1
    29    63    64    1
    30   178   177    1
    31   178   181    1
    32   172   171    2
    33   171   177   am
    34   171   170    1
    35    49    50    1
    36    49    48    1
    37    40    37    1
    38    50    51    2
    39   170   169    1
    40    71    72    1
    41    71    68    1
    42    64    65    1
    43    67    65   am
    44    67    68    1
    45   181   182    1
    46   169   163   am
    47    48    46   am
    48    65    66    2
    49    68    69    1
    50   183   182   ar
    51    37    38    1
    52    37    36    1
    53   182   184   ar
    54   161   162    1
    55   163   162    1
    56   163   164    2
    57    38    39    2
    58    38    44   am
    59    46    47    2
    60    46    45    1
    61    36    29   am
    62    44    45    1
    63   162   165    1
    64    69    74   am
    65    69    70    2
    66    74    75    1
    67    29    30    2
    68    29    28    1
    69    27    28    1
    70   156   155    2
    71   165   166    1
    72   165   167    1
    73    96    97    1
    74    79    78    1
    75    28    31    1
    76    31    32    1
    77   155   154    1
    78    97    98    1
    79   166   168    1
    80    75    78    1
    81    75    76    1
    82    85    86    1
    83    85    87    1
    84    85    82    1
    85    78    80    1
    86    81    76   am
    87    81    82    1
    88    32    33    1
    89    33    34    1
    90    76    77    2
    91    82    83    1
    92    83    84    2
    93   154   157    1
    94   154   153    1
    95    98   100   am
    96    98    99    2
    97     6     5    1
    98   157   158    1
    99   100   101    1
   100     4     3    2
   101    34    35    1
   102     5     7    1
   103     5     2    1
   104    19    18    2
   105    14    13    1
   106    21    24    1
   107    21    20    1
   108    21    22    1
   109    18    20   am
   110    18    17    1
   111    24    25    1
   112    20    26    1
   113    16    17    1
   114    16    10   am
   115    26    25    1
   116   152   149    1
   117     3     2    1
   118     3     8   am
   119    23    22    2
   120   142   140   am
   121   158   159    1
   122   101   102    1
   123     9    10    1
   124     9     8    1
   125     9    12    1
   126   160   159    1
   127     2     1    1
   128   104   102   am
   129   104   105    1
   130    10    11    2
   131    13    12    1
   132    13    15    1
   133   141   140    2
   134   140   139    1
   135   102   103    2
   136   105   106    1
   137   122   120    1
   138   149   148    1
   139   149   150    1
   140   106   107    2
   141   148   145   am
   142   112   113    1
   143   112   109    1
   144   113   114    1
   145   139   136    1
   146   150   151    2
   147   120   119    1
   148   136   137    1
   149   136   135    1
   150   143   137   am
   151   143   144    1
   152   145   144    1
   153   145   146    2
   154   126   125    2
   155   137   138    2
   156   147   144    1
   157   109   110    1
   158   109   108    1
   159   121   119    1
   160   114   108    1
   161   119   116    1
   162   135   125   am
   163   125   124    1
   164   110   111    2
   165   116   115    1
   166   116   117    1
   167   123   124    1
   168   124   127    1
   169   118   117    2
   170   127   128    1
   171   130   128   ar
   172   130   132   ar
   173   128   129   ar
   174   132   133   ar
   175   129   131   ar
   176   133   131   ar
   177   133   134    1
