@<TRIPOS>MOLECULE
tmp/2c7fB00.pdb
 162 156 0 0 0
SMALL
GASTEIGER

@<TRIPOS>ATOM
      1  N          7.5580   39.3960  -86.6030 N.3    23  PHE23      -0.1241
      2  CA         8.0110   38.7870  -85.3590 C.3    23  PHE23       0.1605
      3  C          6.8230   38.5250  -84.4300 C.2    23  PHE23       0.2264
      4  O          6.0370   39.4260  -84.1490 O.2    23  PHE23      -0.2867
      5  CB         9.0790   39.7070  -84.7320 C.3    23  PHE23       0.0534
      6  CG         9.4150   39.4180  -83.2910 C.ar   23  PHE23      -0.0203
      7  CD1        9.5780   38.1200  -82.8210 C.ar   23  PHE23      -0.0042
      8  CD2        9.6340   40.4740  -82.4140 C.ar   23  PHE23      -0.0042
      9  CE1        9.9060   37.8810  -81.4880 C.ar   23  PHE23      -0.0003
     10  CE2        9.9670   40.2460  -81.0830 C.ar   23  PHE23      -0.0003
     11  CZ        10.1030   38.9480  -80.6200 C.ar   23  PHE23      -0.0000
     12  N          6.0750   36.9940  -80.6380 N.3    25  GLU25      -0.1245
     13  CA         6.5710   36.5390  -79.3480 C.3    25  GLU25       0.1567
     14  C          5.4130   36.0230  -78.5030 C.2    25  GLU25       0.2260
     15  O          4.2860   36.5050  -78.6260 O.2    25  GLU25      -0.2867
     16  CB         7.2890   37.6820  -78.6240 C.3    25  GLU25       0.0388
     17  CG         7.9560   37.3010  -77.3020 C.3    25  GLU25       0.1160
     18  CD         8.7460   38.4410  -76.6770 C.2    25  GLU25       0.3649
     19  OE1        8.8870   39.5040  -77.3180 O.co2  25  GLU25      -0.2457
     20  OE2        9.2340   38.2710  -75.5390 O.co2  25  GLU25      -0.2457
     21  N          3.9250   36.7700  -75.9280 N.3    27  LEU27      -0.1245
     22  CA         3.8510   37.9980  -75.1560 C.3    27  LEU27       0.1561
     23  C          2.4240   38.5050  -75.2480 C.2    27  LEU27       0.2260
     24  O          1.8620   38.5860  -76.3420 O.2    27  LEU27      -0.2867
     25  CB         4.8020   39.0410  -75.7570 C.3    27  LEU27       0.0270
     26  CG         5.3340   40.2510  -74.9750 C.3    27  LEU27       0.0019
     27  CD1        6.2380   41.0710  -75.8820 C.3    27  LEU27       0.0001
     28  CD2        4.2450   41.1430  -74.3950 C.3    27  LEU27       0.0001
     29  N         12.9570   37.4470  -78.8090 N.3    69  GLY69      -0.1210
     30  CA        12.1940   38.1150  -77.7620 C.3    69  GLY69       0.1956
     31  C         12.6130   37.6530  -76.3840 C.2    69  GLY69       0.2611
     32  O         13.3610   36.6860  -76.2380 O.2    69  GLY69      -0.2717
     33  N         12.1710   38.3640  -75.3620 N.am   70  ASN70      -0.1974
     34  CA        12.7460   38.2080  -74.0430 C.3    70  ASN70       0.1688
     35  C         12.2350   36.9210  -73.4450 C.2    70  ASN70       0.2292
     36  O         12.7790   36.4010  -72.4820 O.2    70  ASN70      -0.2864
     37  CB        12.3560   39.3820  -73.1600 C.3    70  ASN70       0.1181
     38  CG        13.1620   40.6150  -73.4470 C.2    70  ASN70       0.2629
     39  OD1       12.8030   41.7100  -73.0490 O.2    70  ASN70      -0.2716
     40  ND2       14.2580   40.4450  -74.1490 N.am   70  ASN70      -0.0877
     41  N          7.8130   38.6080  -68.8400 N.3    95  TRP95      -0.1241
     42  CA         6.5950   39.4180  -68.8750 C.3    95  TRP95       0.1605
     43  C          5.6210   39.1060  -67.7390 C.2    95  TRP95       0.2264
     44  O          4.4300   39.4170  -67.8360 O.2    95  TRP95      -0.2867
     45  CB         5.9080   39.2910  -70.2420 C.3    95  TRP95       0.0550
     46  CG         6.8380   39.5760  -71.3850 C.ar   95  TRP95       0.0003
     47  CD1        7.3880   38.6650  -72.2410 C.ar   95  TRP95       0.0946
     48  CD2        7.3510   40.8550  -71.7770 C.ar   95  TRP95       0.0152
     49  NE1        8.2010   39.2980  -73.1490 N.ar   95  TRP95      -0.2442
     50  CE2        8.1990   40.6430  -72.8860 C.ar   95  TRP95       0.0810
     51  CE3        7.1720   42.1630  -71.3010 C.ar   95  TRP95       0.0012
     52  CZ2        8.8680   41.6890  -73.5290 C.ar   95  TRP95       0.0191
     53  CZ3        7.8350   43.2030  -71.9410 C.ar   95  TRP95       0.0001
     54  CH2        8.6730   42.9590  -73.0450 C.ar   95  TRP95       0.0015
     55  N         18.3760   35.8130  -77.5880 N.3   170  ASN170     -0.1225
     56  CA        17.8610   37.1690  -77.7350 C.3   170  ASN170      0.1785
     57  C         18.8490   38.1270  -77.0810 C.2   170  ASN170      0.2597
     58  O         19.6590   37.7000  -76.2600 O.2   170  ASN170     -0.2718
     59  CB        16.4880   37.2830  -77.0710 C.3   170  ASN170      0.1169
     60  CG        15.7890   38.5940  -77.3840 C.2   170  ASN170      0.2627
     61  OD1       15.5070   38.9040  -78.5420 O.2   170  ASN170     -0.2716
     62  ND2       15.4950   39.3650  -76.3450 N.am  170  ASN170     -0.0877
     63  N         18.7960   39.4090  -77.4430 N.am  171  ALA171     -0.1979
     64  CA        19.6860   40.4180  -76.8550 C.3   171  ALA171      0.1597
     65  C         19.8340   40.2070  -75.3490 C.2   171  ALA171      0.2287
     66  O         18.8450   40.2250  -74.6120 O.2   171  ALA171     -0.2864
     67  CB        19.1780   41.8230  -77.1530 C.3   171  ALA171      0.0319
     68  N         17.6400   43.6840  -67.4170 N.3   176  TRP176     -0.1241
     69  CA        16.2430   43.2950  -67.2240 C.3   176  TRP176      0.1605
     70  C         15.9760   41.8740  -67.7190 C.2   176  TRP176      0.2264
     71  O         14.8850   41.3400  -67.5190 O.2   176  TRP176     -0.2867
     72  CB        15.3190   44.2590  -67.9770 C.3   176  TRP176      0.0550
     73  CG        15.6490   44.3280  -69.4400 C.ar  176  TRP176      0.0003
     74  CD1       15.2570   43.4510  -70.4160 C.ar  176  TRP176      0.0946
     75  CD2       16.4710   45.3070  -70.0850 C.ar  176  TRP176      0.0152
     76  NE1       15.7790   43.8310  -71.6310 N.ar  176  TRP176     -0.2442
     77  CE2       16.5260   44.9680  -71.4580 C.ar  176  TRP176      0.0810
     78  CE3       17.1600   46.4450  -69.6390 C.ar  176  TRP176      0.0012
     79  CZ2       17.2460   45.7250  -72.3920 C.ar  176  TRP176      0.0191
     80  CZ3       17.8760   47.2020  -70.5680 C.ar  176  TRP176      0.0001
     81  CH2       17.9130   46.8350  -71.9300 C.ar  176  TRP176      0.0015
     82  N         20.8080   45.4610  -77.2930 N.3   212  SER212     -0.1217
     83  CA        19.3650   45.7000  -77.1480 C.3   212  SER212      0.1889
     84  C         18.9780   46.9680  -77.8930 C.2   212  SER212      0.2288
     85  O         17.9790   47.0020  -78.6060 O.2   212  SER212     -0.2866
     86  CB        18.9740   45.8650  -75.6760 C.3   212  SER212      0.2089
     87  OG        19.6090   44.9130  -74.8470 O.3   212  SER212     -0.2183
     88  N         18.2800   46.2890  -83.1390 N.3   240  HIS240     -0.1241
     89  CA        16.9710   46.5360  -82.5480 C.3   240  HIS240      0.1621
     90  C         16.7840   48.0400  -82.3650 C.2   240  HIS240      0.2264
     91  O         17.6730   48.7230  -81.8440 O.2   240  HIS240     -0.2867
     92  CB        16.8460   45.8220  -81.1970 C.3   240  HIS240      0.0745
     93  CG        16.9940   44.3310  -81.2660 C.ar  240  HIS240      0.0817
     94  ND1       16.7130   43.5100  -80.1930 N.ar  240  HIS240     -0.2268
     95  CD2       17.3790   43.5090  -82.2720 C.ar  240  HIS240      0.1154
     96  CE1       16.9310   42.2520  -80.5320 C.ar  240  HIS240      0.1986
     97  NE2       17.3340   42.2240  -81.7900 N.ar  240  HIS240     -0.2212
     98  N         13.5400   51.0530  -81.4690 N.3   242  TYR242     -0.1241
     99  CA        12.1870   51.5510  -81.2480 C.3   242  TYR242      0.1605
    100  C         12.1960   53.0670  -81.0860 C.2   242  TYR242      0.2264
    101  O         13.1340   53.6350  -80.5230 O.2   242  TYR242     -0.2867
    102  CB        11.5540   50.9030  -80.0130 C.3   242  TYR242      0.0534
    103  CG        11.3960   49.4010  -80.0980 C.ar  242  TYR242     -0.0201
    104  CD1       10.3760   48.8260  -80.8570 C.ar  242  TYR242     -0.0009
    105  CD2       12.2580   48.5550  -79.4040 C.ar  242  TYR242     -0.0009
    106  CE1       10.2260   47.4420  -80.9310 C.ar  242  TYR242      0.0417
    107  CE2       12.1180   47.1720  -79.4700 C.ar  242  TYR242      0.0417
    108  CZ        11.1020   46.6230  -80.2340 C.ar  242  TYR242      0.1957
    109  OH        10.9630   45.2560  -80.2980 O.3   242  TYR242     -0.2866
    110  N         14.1400   43.5190  -85.0480 N.3   290  GLU290     -0.1245
    111  CA        13.2350   44.2540  -84.1670 C.3   290  GLU290      0.1567
    112  C         13.2320   45.7380  -84.5070 C.2   290  GLU290      0.2260
    113  O         14.2000   46.4480  -84.2320 O.2   290  GLU290     -0.2867
    114  CB        13.6090   44.0610  -82.6970 C.3   290  GLU290      0.0388
    115  CG        12.8520   42.9450  -81.9950 C.3   290  GLU290      0.1160
    116  CD        13.2510   42.7980  -80.5390 C.2   290  GLU290      0.3649
    117  OE1       13.3970   43.8320  -79.8530 O.co2 290  GLU290     -0.2457
    118  OE2       13.4140   41.6480  -80.0800 O.co2 290  GLU290     -0.2457
    119  N          7.0290   52.4440  -80.6620 N.3   294  TRP294     -0.1241
    120  CA         6.5600   51.8520  -79.4050 C.3   294  TRP294      0.1605
    121  C          6.7080   52.8300  -78.2400 C.2   294  TRP294      0.2264
    122  O          7.8250   53.1010  -77.7910 O.2   294  TRP294     -0.2867
    123  CB         7.3030   50.5320  -79.1300 C.3   294  TRP294      0.0550
    124  CG         7.0890   49.9150  -77.7650 C.ar  294  TRP294      0.0003
    125  CD1        6.0470   50.1380  -76.9070 C.ar  294  TRP294      0.0946
    126  CD2        7.9270   48.9390  -77.1290 C.ar  294  TRP294      0.0152
    127  NE1        6.1970   49.3820  -75.7690 N.ar  294  TRP294     -0.2442
    128  CE2        7.3400   48.6340  -75.8790 C.ar  294  TRP294      0.0810
    129  CE3        9.1220   48.2980  -77.4890 C.ar  294  TRP294      0.0012
    130  CZ2        7.9070   47.7190  -74.9860 C.ar  294  TRP294      0.0191
    131  CZ3        9.6850   47.3860  -76.6010 C.ar  294  TRP294      0.0001
    132  CH2        9.0740   47.1050  -75.3650 C.ar  294  TRP294      0.0015
    133  N          1.6660   45.7020  -74.1000 N.3   317  LEU317     -0.1245
    134  CA         2.2660   46.3510  -75.2770 C.3   317  LEU317      0.1561
    135  C          1.2690   46.7070  -76.3890 C.2   317  LEU317      0.2260
    136  O          1.6150   46.7060  -77.5730 O.2   317  LEU317     -0.2867
    137  CB         3.4300   45.5120  -75.8310 C.3   317  LEU317      0.0270
    138  CG         4.8340   45.6860  -75.2390 C.3   317  LEU317      0.0019
    139  CD1        4.9430   45.1430  -73.8190 C.3   317  LEU317      0.0001
    140  CD2        5.8570   45.0120  -76.1330 C.3   317  LEU317      0.0001
    141  N          8.3760   44.5060  -85.3030 N.3   349  ALA349     -0.1231
    142  CA         7.9850   43.9850  -84.0040 C.3   349  ALA349      0.1694
    143  C          6.7620   44.7410  -83.4840 C.2   349  ALA349      0.2591
    144  O          6.8610   45.9240  -83.1710 O.2   349  ALA349     -0.2718
    145  CB         9.1450   44.0930  -83.0250 C.3   349  ALA349      0.0304
    146  N          5.6060   44.0790  -83.3900 N.am  350  GLN350     -0.1979
    147  CA         5.4260   42.6610  -83.7280 C.3   350  GLN350      0.1601
    148  C          4.2420   42.4790  -84.6920 C.2   350  GLN350      0.2287
    149  O          3.7670   43.4640  -85.2590 O.2   350  GLN350     -0.2864
    150  CB         5.2420   41.8330  -82.4510 C.3   350  GLN350      0.0394
    151  CG         6.4560   41.8470  -81.5270 C.3   350  GLN350      0.0908
    152  CD         6.3780   40.8300  -80.4080 C.2   350  GLN350      0.2608
    153  OE1        5.5940   39.8820  -80.4600 O.2   350  GLN350     -0.2717
    154  NE2        7.2020   41.0200  -79.3850 N.am  350  GLN350     -0.0878
    155  N          2.4170   45.6330  -79.9980 N.3   355  ILE355     -0.1245
    156  CA         2.9610   46.7120  -80.8490 C.3   355  ILE355      0.1561
    157  C          2.8630   46.3860  -82.3440 C.2   355  ILE355      0.2260
    158  O          3.8690   46.2180  -83.0360 O.2   355  ILE355     -0.2867
    159  CB         4.4000   47.1570  -80.4290 C.3   355  ILE355      0.0252
    160  CG1        5.3120   45.9490  -80.1520 C.3   355  ILE355      0.0019
    161  CG2        4.3200   48.0900  -79.2270 C.3   355  ILE355      0.0019
    162  CD1        6.7680   46.2990  -79.8840 C.3   355  ILE355      0.0001
@<TRIPOS>BOND
     1     1     2    1
     2     2     5    1
     3     2     3    1
     4   141   142    1
     5   149   148    2
     6   110   111    1
     7     5     6    1
     8   148   147    1
     9   112   113    2
    10   112   111    1
    11     3     4    2
    12   111   114    1
    13   142   143    1
    14   142   145    1
    15   147   146    1
    16   147   150    1
    17   143   146   am
    18   143   144    2
    19     6     7   ar
    20     6     8   ar
    21    88    89    1
    22   158   157    2
    23     7     9   ar
    24   114   115    1
    25    89    90    1
    26    89    92    1
    27   150   151    1
    28     8    10   ar
    29    90    91    2
    30   157   156    1
    31    95    97   ar
    32    95    93   ar
    33   115   116    1
    34    97    96   ar
    35   151   152    1
    36     9    11   ar
    37    98    99    1
    38    93    92    1
    39    93    94   ar
    40    99   100    1
    41    99   102    1
    42   100   101    2
    43    10    11   ar
    44   106   104   ar
    45   106   108   ar
    46   104   103   ar
    47   156   159    1
    48   156   155    1
    49   119   120    1
    50    12    13    1
    51   116   118   ar
    52   116   117   ar
    53    96    94   ar
    54   153   152    2
    55   159   160    1
    56   159   161    1
    57   152   154   am
    58   109   108    1
    59   108   107   ar
    60   160   162    1
    61   103   102    1
    62   103   105   ar
    63   107   105   ar
    64   120   123    1
    65   120   121    1
    66    13    16    1
    67    13    14    1
    68   123   124    1
    69    29    30    1
    70    15    14    2
    71    16    17    1
    72    85    84    2
    73    61    60    2
    74   121   122    2
    75    84    83    1
    76   124   126   ar
    77   124   125   ar
    78    30    31    1
    79    56    55    1
    80    56    57    1
    81    56    59    1
    82   136   135    2
    83   129   126   ar
    84   129   131   ar
    85    63    57   am
    86    63    64    1
    87    60    59    1
    88    60    62   am
    89    19    18   ar
    90    17    18    1
    91    82    83    1
    92    67    64    1
    93    83    86    1
    94   126   128   ar
    95    57    58    2
    96   125   127   ar
    97    64    65    1
    98    18    20   ar
    99   131   132   ar
   100   135   134    1
   101    31    32    2
   102    31    33   am
   103    24    23    2
   104   140   138    1
   105    21    22    1
   106    27    26    1
   107   128   127   ar
   108   128   130   ar
   109   137   134    1
   110   137   138    1
   111    25    22    1
   112    25    26    1
   113    86    87    1
   114   132   130   ar
   115    33    34    1
   116    65    66    2
   117   134   133    1
   118    23    22    1
   119   138   139    1
   120    26    28    1
   121    40    38   am
   122    34    35    1
   123    34    37    1
   124    52    54   ar
   125    52    50   ar
   126    38    37    1
   127    38    39    2
   128    35    36    2
   129    49    50   ar
   130    49    47   ar
   131    54    53   ar
   132    50    48   ar
   133    79    81   ar
   134    79    77   ar
   135    47    46   ar
   136    53    51   ar
   137    81    80   ar
   138    48    46   ar
   139    48    51   ar
   140    76    77   ar
   141    76    74   ar
   142    77    75   ar
   143    46    45    1
   144    80    78   ar
   145    74    73   ar
   146    45    42    1
   147    75    78   ar
   148    75    73   ar
   149    73    72    1
   150    42    41    1
   151    42    43    1
   152    72    69    1
   153    44    43    2
   154    70    71    2
   155    70    69    1
   156    68    69    1
