@<TRIPOS>MOLECULE
tmp/2c7fC00.pdb
 170 163 0 0 0
SMALL
GASTEIGER

@<TRIPOS>ATOM
      1  N         56.9800   63.9430  -98.7500 N.3    22  PHE22      -0.1241
      2  CA        57.6490   63.5030  -97.5330 C.3    22  PHE22       0.1605
      3  C         59.1620   63.4760  -97.7420 C.2    22  PHE22       0.2264
      4  O         59.6530   62.8660  -98.6910 O.2    22  PHE22      -0.2867
      5  CB        57.0700   62.1300  -97.1360 C.3    22  PHE22       0.0534
      6  CG        57.8650   61.3670  -96.1050 C.ar   22  PHE22      -0.0203
      7  CD1       58.4130   61.9920  -94.9890 C.ar   22  PHE22      -0.0042
      8  CD2       58.0050   59.9900  -96.2310 C.ar   22  PHE22      -0.0042
      9  CE1       59.1270   61.2660  -94.0460 C.ar   22  PHE22      -0.0003
     10  CE2       58.7130   59.2530  -95.2910 C.ar   22  PHE22      -0.0003
     11  CZ        59.2750   59.8920  -94.1970 C.ar   22  PHE22      -0.0000
     12  N         62.6120   62.5210  -95.6210 N.3    24  GLU24      -0.1245
     13  CA        63.2390   61.9230  -94.4480 C.3    24  GLU24       0.1567
     14  C         64.7460   62.1220  -94.5160 C.2    24  GLU24       0.2260
     15  O         65.3240   62.1570  -95.6050 O.2    24  GLU24      -0.2867
     16  CB        62.9060   60.4290  -94.3710 C.3    24  GLU24       0.0388
     17  CG        63.4170   59.7110  -93.1230 C.3    24  GLU24       0.1160
     18  CD        62.9620   58.2650  -93.0340 C.2    24  GLU24       0.3649
     19  OE1       62.1460   57.8330  -93.8760 O.co2  24  GLU24      -0.2457
     20  OE2       63.4160   57.5550  -92.1120 O.co2  24  GLU24      -0.2457
     21  N         67.2960   60.4440  -94.8170 N.3    26  LEU26      -0.1245
     22  CA        67.5260   59.0870  -95.2840 C.3    26  LEU26       0.1561
     23  C         68.3210   59.1820  -96.5710 C.2    26  LEU26       0.2260
     24  O         67.9610   59.9440  -97.4680 O.2    26  LEU26      -0.2867
     25  CB        66.1810   58.4040  -95.5680 C.3    26  LEU26       0.0270
     26  CG        65.9970   56.8830  -95.6290 C.3    26  LEU26       0.0019
     27  CD1       64.5450   56.5840  -95.9510 C.3    26  LEU26       0.0001
     28  CD2       66.9030   56.1850  -96.6360 C.3    26  LEU26       0.0001
     29  N         58.8770   59.0700  -90.6120 N.3    68  GLY68      -0.1210
     30  CA        59.9200   58.1590  -91.0620 C.3    68  GLY68       0.1956
     31  C         60.6690   57.5410  -89.9020 C.2    68  GLY68       0.2611
     32  O         60.5110   57.9510  -88.7550 O.2    68  GLY68      -0.2717
     33  N         61.4560   56.5220  -90.1960 N.am   69  ASN69      -0.1974
     34  CA        61.9880   55.6610  -89.1620 C.3    69  ASN69       0.1688
     35  C         63.0640   56.4170  -88.4160 C.2    69  ASN69       0.2292
     36  O         63.3320   56.1640  -87.2570 O.2    69  ASN69      -0.2864
     37  CB        62.5760   54.4010  -89.7840 C.3    69  ASN69       0.1181
     38  CG        61.5260   53.3880  -90.1570 C.2    69  ASN69       0.2629
     39  OD1       61.6840   52.6460  -91.1110 O.2    69  ASN69      -0.2716
     40  ND2       60.4570   53.3420  -89.3990 N.am   69  ASN69      -0.0877
     41  N         68.7640   53.6370  -90.3060 N.3    94  TRP94      -0.1241
     42  CA        69.3740   53.4160  -91.6160 C.3    94  TRP94       0.1605
     43  C         70.8920   53.2320  -91.5640 C.2    94  TRP94       0.2264
     44  O         71.5770   53.4040  -92.5770 O.2    94  TRP94      -0.2867
     45  CB        68.9840   54.5440  -92.5790 C.3    94  TRP94       0.0550
     46  CG        67.5010   54.7570  -92.6520 C.ar   94  TRP94       0.0003
     47  CD1       66.7940   55.7900  -92.1070 C.ar   94  TRP94       0.0946
     48  CD2       66.5390   53.9020  -93.2840 C.ar   94  TRP94       0.0152
     49  NE1       65.4540   55.6390  -92.3700 N.ar   94  TRP94      -0.2442
     50  CE2       65.2690   54.4870  -93.0880 C.ar   94  TRP94       0.0810
     51  CE3       66.6290   52.7000  -94.0010 C.ar   94  TRP94       0.0012
     52  CZ2       64.0940   53.9130  -93.5850 C.ar   94  TRP94       0.0191
     53  CZ3       65.4610   52.1290  -94.4950 C.ar   94  TRP94       0.0001
     54  CH2       64.2110   52.7380  -94.2840 C.ar   94  TRP94       0.0015
     55  N         56.3380   57.9530  -85.5330 N.3   169  ASN169     -0.1225
     56  CA        56.2360   57.1900  -86.7690 C.3   169  ASN169      0.1785
     57  C         55.7200   55.7930  -86.4270 C.2   169  ASN169      0.2597
     58  O         55.8180   55.3720  -85.2740 O.2   169  ASN169     -0.2718
     59  CB        57.6060   57.1030  -87.4430 C.3   169  ASN169      0.1169
     60  CG        57.5380   56.5280  -88.8460 C.2   169  ASN169      0.2627
     61  OD1       56.9000   57.0900  -89.7330 O.2   169  ASN169     -0.2716
     62  ND2       58.2090   55.4070  -89.0540 N.am  169  ASN169     -0.0877
     63  N         55.1630   55.0860  -87.4090 N.am  170  ALA170     -0.1979
     64  CA        54.6570   53.7270  -87.1980 C.3   170  ALA170      0.1597
     65  C         55.6090   52.9260  -86.3110 C.2   170  ALA170      0.2287
     66  O         56.7830   52.7500  -86.6470 O.2   170  ALA170     -0.2864
     67  CB        54.4420   53.0200  -88.5330 C.3   170  ALA170      0.0319
     68  N         61.4570   46.1640  -86.4120 N.3   175  TRP175     -0.1241
     69  CA        62.6660   46.7400  -87.0010 C.3   175  TRP175      0.1605
     70  C         62.9090   48.1620  -86.5090 C.2   175  TRP175      0.2264
     71  O         63.9540   48.7490  -86.7980 O.2   175  TRP175     -0.2867
     72  CB        62.5550   46.7580  -88.5290 C.3   175  TRP175      0.0550
     73  CG        61.3360   47.5000  -88.9960 C.ar  175  TRP175      0.0003
     74  CD1       61.1980   48.8560  -89.1320 C.ar  175  TRP175      0.0946
     75  CD2       60.0740   46.9300  -89.3540 C.ar  175  TRP175      0.0152
     76  NE1       59.9290   49.1620  -89.5620 N.ar  175  TRP175     -0.2442
     77  CE2       59.2180   48.0000  -89.7080 C.ar  175  TRP175      0.0810
     78  CE3       59.5840   45.6170  -89.4200 C.ar  175  TRP175      0.0012
     79  CZ2       57.8930   47.7980  -90.1190 C.ar  175  TRP175      0.0191
     80  CZ3       58.2660   45.4150  -89.8310 C.ar  175  TRP175      0.0001
     81  CH2       57.4370   46.5020  -90.1750 C.ar  175  TRP175      0.0015
     82  N         52.2320   49.9360  -89.7860 N.3   211  SER211     -0.1217
     83  CA        53.2730   50.0930  -90.8120 C.3   211  SER211      0.1889
     84  C         52.7120   49.7200  -92.1770 C.2   211  SER211      0.2288
     85  O         52.9300   50.4190  -93.1650 O.2   211  SER211     -0.2866
     86  CB        54.4780   49.1900  -90.5250 C.3   211  SER211      0.2089
     87  OG        54.8310   49.1910  -89.1570 O.3   211  SER211     -0.2183
     88  N         49.9110   53.6200  -94.5120 N.3   239  HIS239     -0.1241
     89  CA        51.1530   53.4590  -95.2580 C.3   239  HIS239      0.1621
     90  C         51.0080   52.2910  -96.2280 C.2   239  HIS239      0.2264
     91  O         50.5620   51.2060  -95.8390 O.2   239  HIS239     -0.2867
     92  CB        52.3210   53.1970  -94.3010 C.3   239  HIS239      0.0745
     93  CG        52.5720   54.2990  -93.3130 C.ar  239  HIS239      0.0817
     94  ND1       53.7010   54.3380  -92.5240 N.ar  239  HIS239     -0.2268
     95  CD2       51.8550   55.4030  -92.9960 C.ar  239  HIS239      0.1154
     96  CE1       53.6610   55.4120  -91.7540 C.ar  239  HIS239      0.1986
     97  NE2       52.5500   56.0750  -92.0220 N.ar  239  HIS239     -0.2212
     98  N         53.0540   50.4610  -99.8070 N.3   241  TYR241     -0.1241
     99  CA        54.0110   50.3540 -100.9020 C.3   241  TYR241      0.1605
    100  C         53.7010   49.1380 -101.7670 C.2   241  TYR241      0.2264
    101  O         53.2620   48.1020 -101.2610 O.2   241  TYR241     -0.2867
    102  CB        55.4450   50.2670 -100.3730 C.3   241  TYR241      0.0534
    103  CG        55.9000   51.4740  -99.5850 C.ar  241  TYR241     -0.0201
    104  CD1       56.2570   52.6610 -100.2270 C.ar  241  TYR241     -0.0009
    105  CD2       55.9860   51.4250  -98.1950 C.ar  241  TYR241     -0.0009
    106  CE1       56.6810   53.7710  -99.5030 C.ar  241  TYR241      0.0417
    107  CE2       56.4070   52.5280  -97.4630 C.ar  241  TYR241      0.0417
    108  CZ        56.7530   53.6970  -98.1220 C.ar  241  TYR241      0.1957
    109  OH        57.1710   54.7900  -97.3970 O.3   241  TYR241     -0.2866
    110  N         52.2880   58.0270  -96.3340 N.3   289  GLU289     -0.1245
    111  CA        53.3090   57.2120  -96.9930 C.3   289  GLU289      0.1567
    112  C         52.6890   56.3200  -98.0600 C.2   289  GLU289      0.2260
    113  O         52.0060   55.3420  -97.7440 O.2   289  GLU289     -0.2867
    114  CB        54.0780   56.3560  -95.9870 C.3   289  GLU289      0.0388
    115  CG        55.3690   56.9780  -95.4870 C.3   289  GLU289      0.1160
    116  CD        56.0960   56.0890  -94.4990 C.2   289  GLU289      0.3649
    117  OE1       56.1650   54.8650  -94.7410 O.co2 289  GLU289     -0.2457
    118  OE2       56.6000   56.6100  -93.4840 O.co2 289  GLU289     -0.2457
    119  N         57.7670   50.8410 -104.5630 N.3   293  TRP293     -0.1241
    120  CA        59.0850   50.6480 -103.9520 C.3   293  TRP293      0.1605
    121  C         59.4930   49.1730 -103.9510 C.2   293  TRP293      0.2264
    122  O         58.9370   48.3710 -103.1960 O.2   293  TRP293     -0.2867
    123  CB        59.1040   51.2430 -102.5300 C.3   293  TRP293      0.0550
    124  CG        60.3260   50.9320 -101.6890 C.ar  293  TRP293      0.0003
    125  CD1       61.5640   50.5500 -102.1320 C.ar  293  TRP293      0.0946
    126  CD2       60.4230   51.0200 -100.2610 C.ar  293  TRP293      0.0152
    127  NE1       62.4140   50.3730 -101.0680 N.ar  293  TRP293     -0.2442
    128  CE2       61.7430   50.6580  -99.9080 C.ar  293  TRP293      0.0810
    129  CE3       59.5200   51.3610  -99.2430 C.ar  293  TRP293      0.0012
    130  CZ2       62.1830   50.6240  -98.5800 C.ar  293  TRP293      0.0191
    131  CZ3       59.9590   51.3290  -97.9220 C.ar  293  TRP293      0.0001
    132  CH2       61.2810   50.9640  -97.6050 C.ar  293  TRP293      0.0015
    133  N         65.9100   47.1500 -103.6300 N.3   297  ASN297     -0.1240
    134  CA        65.9390   46.2210 -102.4940 C.3   297  ASN297      0.1653
    135  C         67.2770   45.5050 -102.2960 C.2   297  ASN297      0.2266
    136  O         67.8700   45.5780 -101.2150 O.2   297  ASN297     -0.2867
    137  CB        64.8040   45.1950 -102.6010 C.3   297  ASN297      0.1155
    138  CG        63.4710   45.7360 -102.1080 C.2   297  ASN297      0.2627
    139  OD1       63.4160   46.6600 -101.2930 O.2   297  ASN297     -0.2716
    140  ND2       62.3840   45.1490 -102.5960 N.am  297  ASN297     -0.0877
    141  N         67.6780   53.3940 -101.0060 N.3   316  LEU316     -0.1245
    142  CA        66.3090   53.4560 -101.5360 C.3   316  LEU316      0.1561
    143  C         66.1790   54.1590 -102.8940 C.2   316  LEU316      0.2260
    144  O         65.1540   54.7760 -103.1890 O.2   316  LEU316     -0.2867
    145  CB        65.3530   54.0740 -100.5030 C.3   316  LEU316      0.0270
    146  CG        64.7150   53.1750  -99.4370 C.3   316  LEU316      0.0019
    147  CD1       65.7230   52.6770  -98.4120 C.3   316  LEU316      0.0001
    148  CD2       63.5890   53.9200  -98.7420 C.3   316  LEU316      0.0001
    149  N         55.8910   59.1360 -100.8120 N.3   348  ALA348     -0.1231
    150  CA        57.1640   58.8390 -100.1750 C.3   348  ALA348      0.1694
    151  C         58.1590   58.3200 -101.2120 C.2   348  ALA348      0.2591
    152  O         57.9740   57.2260 -101.7410 O.2   348  ALA348     -0.2718
    153  CB        56.9700   57.8230  -99.0560 C.3   348  ALA348      0.0304
    154  N         59.2090   59.0880 -101.5160 N.am  349  GLN349     -0.1979
    155  CA        59.4940   60.3940 -100.9030 C.3   349  GLN349      0.1601
    156  C         59.7330   61.4590 -101.9860 C.2   349  GLN349      0.2287
    157  O         59.4260   61.2100 -103.1530 O.2   349  GLN349     -0.2864
    158  CB        60.6890   60.2880  -99.9500 C.3   349  GLN349      0.0394
    159  CG        60.4510   59.3570  -98.7650 C.3   349  GLN349      0.0908
    160  CD        61.5150   59.4560  -97.6920 C.2   349  GLN349      0.2608
    161  OE1       62.2840   60.4180  -97.6390 O.2   349  GLN349     -0.2717
    162  NE2       61.5600   58.4570  -96.8190 N.am  349  GLN349     -0.0878
    163  N         63.2710   56.8080 -103.0670 N.3   354  ILE354     -0.1245
    164  CA        62.0370   56.3710 -103.7530 C.3   354  ILE354      0.1561
    165  C         61.2050   57.5520 -104.2700 C.2   354  ILE354      0.2260
    166  O         60.0860   57.8000 -103.8170 O.2   354  ILE354     -0.2867
    167  CB        61.1890   55.3690 -102.9040 C.3   354  ILE354      0.0252
    168  CG1       61.0530   55.8310 -101.4430 C.3   354  ILE354      0.0019
    169  CG2       61.7940   53.9730 -102.9950 C.3   354  ILE354      0.0019
    170  CD1       60.1070   54.9950 -100.5940 C.3   354  ILE354      0.0001
@<TRIPOS>BOND
     1   119   120    1
     2   165   166    2
     3   165   164    1
     4   120   121    1
     5   120   123    1
     6   121   122    2
     7   164   163    1
     8   164   167    1
     9   133   134    1
    10   144   143    2
    11   157   156    2
    12   169   167    1
    13   167   168    1
    14   143   142    1
    15   137   134    1
    16   137   138    1
    17   140   138   am
    18   123   124    1
    19   134   135    1
    20   135   136    2
    21   125   124   ar
    22   125   127   ar
    23   138   139    2
    24   156   155    1
    25   100   101    2
    26   100    99    1
    27   152   151    2
    28   124   126   ar
    29   142   141    1
    30   142   145    1
    31   154   151   am
    32   154   155    1
    33   168   170    1
    34   151   150    1
    35   127   128   ar
    36   155   158    1
    37    99   102    1
    38    99    98    1
    39   149   150    1
    40   145   146    1
    41   102   103    1
    42   126   128   ar
    43   126   129   ar
    44   104   103   ar
    45   104   106   ar
    46   150   153    1
    47   158   159    1
    48   128   130   ar
    49   103   105   ar
    50   106   108   ar
    51   146   148    1
    52   146   147    1
    53   129   131   ar
    54   159   160    1
    55     1     2    1
    56     4     3    2
    57   130   132   ar
    58   105   107   ar
    59   108   107   ar
    60   108   109    1
    61   112   113    2
    62   112   111    1
    63   131   132   ar
    64     3     2    1
    65   160   161    2
    66   160   162   am
    67     2     5    1
    68    24    23    2
    69     5     6    1
    70   111   110    1
    71   111   114    1
    72    28    26    1
    73    23    22    1
    74     8     6   ar
    75     8    10   ar
    76    90    91    2
    77    90    89    1
    78     6     7   ar
    79   114   115    1
    80    27    26    1
    81    26    25    1
    82    12    13    1
    83    15    14    2
    84    25    22    1
    85   115   116    1
    86    10    11   ar
    87    22    21    1
    88    89    88    1
    89    89    92    1
    90     7     9   ar
    91   117   116   ar
    92    14    13    1
    93   116   118   ar
    94    53    54   ar
    95    53    51   ar
    96    13    16    1
    97    16    17    1
    98    92    93    1
    99    54    52   ar
   100    11     9   ar
   101    51    48   ar
   102    19    18   ar
   103    52    50   ar
   104    93    95   ar
   105    93    94   ar
   106    48    50   ar
   107    48    46   ar
   108    85    84    2
   109    17    18    1
   110    50    49   ar
   111    18    20   ar
   112    95    97   ar
   113    46    45    1
   114    46    47   ar
   115    45    42    1
   116    44    43    2
   117    94    96   ar
   118    49    47   ar
   119    84    83    1
   120    97    96   ar
   121    42    43    1
   122    42    41    1
   123    39    38    2
   124    30    29    1
   125    30    31    1
   126    83    86    1
   127    83    82    1
   128    86    87    1
   129    33    31   am
   130    33    34    1
   131    81    79   ar
   132    81    80   ar
   133    38    37    1
   134    38    40   am
   135    79    77   ar
   136    31    32    2
   137    80    78   ar
   138    37    34    1
   139    61    60    2
   140    77    76   ar
   141    77    75   ar
   142    76    74   ar
   143    78    75   ar
   144    75    73   ar
   145    34    35    1
   146    74    73   ar
   147    62    60   am
   148    73    72    1
   149    60    59    1
   150    67    64    1
   151    72    69    1
   152    35    36    2
   153    59    56    1
   154    63    64    1
   155    63    57   am
   156    64    65    1
   157    69    70    1
   158    69    68    1
   159    71    70    2
   160    56    57    1
   161    56    55    1
   162    66    65    2
   163    57    58    2
