@<TRIPOS>MOLECULE
tmp/2c7lB01.pdb
 134 127 0 0 0
SMALL
GASTEIGER

@<TRIPOS>ATOM
      1  N        -30.7060   57.3670   -0.6570 N.3    32  ALA32      -0.1245
      2  CA       -32.1150   57.0340   -0.4940 C.3    32  ALA32       0.1562
      3  C        -33.0160   58.2620   -0.3990 C.2    32  ALA32       0.2260
      4  O        -34.1780   58.2160   -0.8200 O.2    32  ALA32      -0.2867
      5  CB       -32.2960   56.1570    0.7270 C.3    32  ALA32       0.0290
      6  N        -33.4030   62.2740   -3.7980 N.3    35  ASN35      -0.1225
      7  CA       -34.4430   62.8050   -4.6680 C.3    35  ASN35       0.1785
      8  C        -35.0730   64.0340   -4.0120 C.2    35  ASN35       0.2597
      9  O        -35.3640   65.0320   -4.6740 O.2    35  ASN35      -0.2718
     10  CB       -35.5100   61.7370   -4.8390 C.3    35  ASN35       0.1169
     11  CG       -35.3010   60.8620   -6.0560 C.2    35  ASN35       0.2627
     12  OD1      -34.4650   61.1360   -6.9130 O.2    35  ASN35      -0.2716
     13  ND2      -36.1050   59.8080   -6.1540 N.am   35  ASN35      -0.0877
     14  N        -35.2240   63.9450   -2.6880 N.am   36  LYS36      -0.1980
     15  CA       -35.8100   64.9910   -1.8460 C.3    36  LYS36       0.1596
     16  C        -34.7800   66.0670   -1.5840 C.2    36  LYS36       0.2287
     17  O        -35.1340   67.2310   -1.3850 O.2    36  LYS36      -0.2864
     18  CB       -36.2650   64.4230   -0.4950 C.3    36  LYS36       0.0298
     19  CG       -37.1350   63.1900   -0.5710 C.3    36  LYS36       0.0038
     20  CD       -37.2590   62.5770    0.7970 C.3    36  LYS36       0.0206
     21  CE       -38.0830   61.3240    0.7590 C.3    36  LYS36       0.1093
     22  NZ       -38.3050   60.8640    2.1340 N.3    36  LYS36      -0.1314
     23  N        -32.3750   66.9070   -3.7390 N.3    38  LEU38      -0.1231
     24  CA       -32.2820   67.6710   -4.9710 C.3    38  LEU38       0.1693
     25  C        -33.4920   68.5430   -5.2410 C.2    38  LEU38       0.2592
     26  O        -33.3970   69.4890   -6.0110 O.2    38  LEU38      -0.2718
     27  CB       -31.9280   66.7720   -6.1490 C.3    38  LEU38       0.0284
     28  CG       -30.4570   66.3330   -6.1050 C.3    38  LEU38       0.0019
     29  CD1      -30.1770   65.3730   -7.2340 C.3    38  LEU38       0.0001
     30  CD2      -29.5040   67.5370   -6.1720 C.3    38  LEU38       0.0001
     31  N        -34.5990   68.2560   -4.5480 N.am   39  ASP39      -0.1960
     32  CA       -35.8200   69.0450   -4.6510 C.3    39  ASP39       0.1840
     33  C        -35.5850   70.3130   -3.8560 C.2    39  ASP39       0.2621
     34  O        -36.0060   71.3900   -4.2690 O.2    39  ASP39      -0.2715
     35  CB       -37.0220   68.3000   -4.0810 C.3    39  ASP39       0.1450
     36  CG       -37.6580   67.3530   -5.0810 C.2    39  ASP39       0.3671
     37  OD1      -38.0670   66.2560   -4.6730 O.co2  39  ASP39      -0.2456
     38  OD2      -37.7940   67.7100   -6.2660 O.co2  39  ASP39      -0.2456
     39  N        -34.8400   70.1770   -2.7550 N.am   40  VAL40      -0.1977
     40  CA       -34.4760   71.2950   -1.8700 C.3    40  VAL40       0.1596
     41  C        -33.4710   72.2020   -2.5880 C.2    40  VAL40       0.2287
     42  O        -33.6260   73.4190   -2.5790 O.2    40  VAL40      -0.2864
     43  CB       -33.8510   70.7900   -0.5270 C.3    40  VAL40       0.0276
     44  CG1      -33.4170   71.9650    0.3750 C.3    40  VAL40       0.0022
     45  CG2      -34.8380   69.9030    0.2090 C.3    40  VAL40       0.0022
     46  N        -33.2240   72.5890   -5.6990 N.3    42  ASN42      -0.1225
     47  CA       -33.9070   73.2400   -6.8190 C.3    42  ASN42       0.1785
     48  C        -34.7840   74.3980   -6.3610 C.2    42  ASN42       0.2597
     49  O        -34.7510   75.4790   -6.9620 O.2    42  ASN42      -0.2718
     50  CB       -34.7380   72.2410   -7.6300 C.3    42  ASN42       0.1169
     51  CG       -33.8850   71.3700   -8.5310 C.2    42  ASN42       0.2627
     52  OD1      -32.8670   71.8150   -9.0710 O.2    42  ASN42      -0.2716
     53  ND2      -34.2870   70.1120   -8.6860 N.am   42  ASN42      -0.0877
     54  N        -35.5100   74.1810   -5.2620 N.am   43  ARG43      -0.1979
     55  CA       -36.4150   75.1810   -4.6970 C.3    43  ARG43       0.1597
     56  C        -35.7370   76.4420   -4.1500 C.2    43  ARG43       0.2287
     57  O        -36.2850   77.5370   -4.2770 O.2    43  ARG43      -0.2864
     58  CB       -37.3110   74.5400   -3.6450 C.3    43  ARG43       0.0334
     59  CG       -38.3890   73.6620   -4.2470 C.3    43  ARG43       0.0492
     60  CD       -38.9750   72.7320   -3.2170 C.3    43  ARG43       0.2205
     61  NE       -40.2770   72.2060   -3.6180 N.pl3  43  ARG43      -0.0865
     62  CZ       -41.2710   71.9290   -2.7730 C.cat  43  ARG43       0.5346
     63  NH1      -41.1320   72.1160   -1.4630 N.pl3  43  ARG43       0.1354
     64  NH2      -42.4250   71.4850   -3.2450 N.pl3  43  ARG43       0.1354
     65  N        -38.9450   75.5180    0.6310 N.3   142  ALA142     -0.1231
     66  CA       -38.3650   74.1810    0.5340 C.3   142  ALA142      0.1694
     67  C        -39.2740   73.0490    0.9890 C.2   142  ALA142      0.2592
     68  O        -39.1590   71.9330    0.4800 O.2   142  ALA142     -0.2718
     69  CB       -37.0450   74.1180    1.2930 C.3   142  ALA142      0.0304
     70  N        -40.1780   73.3400    1.9260 N.am  143  ASN143     -0.1960
     71  CA       -41.0860   72.3290    2.4580 C.3   143  ASN143      0.1819
     72  C        -42.5440   72.5280    2.0520 C.2   143  ASN143      0.2621
     73  O        -43.4490   71.9740    2.6880 O.2   143  ASN143     -0.2715
     74  CB       -40.9410   72.2370    3.9830 C.3   143  ASN143      0.1195
     75  CG       -41.0530   70.8120    4.4990 C.2   143  ASN143      0.2630
     76  OD1      -40.8240   69.8520    3.7640 O.2   143  ASN143     -0.2716
     77  ND2      -41.3990   70.6710    5.7700 N.am  143  ASN143     -0.0877
     78  N        -42.7490   73.2770    0.9600 N.am  144  ASP144     -0.1958
     79  CA       -44.0720   73.5780    0.3790 C.3   144  ASP144      0.1825
     80  C        -44.6710   72.2430   -0.0890 C.2   144  ASP144      0.2464
     81  O        -44.0540   71.5360   -0.8910 O.2   144  ASP144     -0.2730
     82  CB       -43.9040   74.5410   -0.8130 C.3   144  ASP144      0.1450
     83  CG       -45.2120   75.2140   -1.2520 C.2   144  ASP144      0.3671
     84  OD1      -46.3010   74.8560   -0.7550 O.co2 144  ASP144     -0.2456
     85  OD2      -45.1440   76.1180   -2.1180 O.co2 144  ASP144     -0.2456
     86  N        -45.8590   71.8630    0.4460 N.am  145  PRO145     -0.2727
     87  CA       -46.5340   70.6010    0.0900 C.3   145  PRO145      0.1402
     88  C        -47.0520   70.5350   -1.3470 C.2   145  PRO145      0.2269
     89  O        -47.2700   69.4490   -1.8850 O.2   145  PRO145     -0.2865
     90  CB       -47.7040   70.5520    1.0720 C.3   145  PRO145      0.0296
     91  CG       -47.2970   71.4670    2.1820 C.3   145  PRO145      0.0237
     92  CD       -46.6560   72.5870    1.4540 C.3   145  PRO145      0.0939
     93  N        -45.4430   68.8450   -5.4870 N.3   148  ILE148     -0.1231
     94  CA       -44.4780   67.8160   -5.1720 C.3   148  ILE148      0.1692
     95  C        -45.1790   66.5620   -4.6780 C.2   148  ILE148      0.2593
     96  O        -46.3050   66.6330   -4.1760 O.2   148  ILE148     -0.2718
     97  CB       -43.4540   68.3500   -4.1220 C.3   148  ILE148      0.0266
     98  CG1      -42.1560   67.5470   -4.1820 C.3   148  ILE148      0.0019
     99  CG2      -44.0680   68.4510   -2.7030 C.3   148  ILE148      0.0020
    100  CD1      -40.9550   68.3890   -3.9170 C.3   148  ILE148      0.0001
    101  N        -44.5160   65.4180   -4.8520 N.am  149  THR149     -0.1939
    102  CA       -45.0140   64.1200   -4.3990 C.3   149  THR149      0.2028
    103  C        -44.9430   64.2130   -2.8700 C.2   149  THR149      0.2642
    104  O        -43.9210   64.6390   -2.3260 O.2   149  THR149     -0.2714
    105  CB       -44.1080   62.9850   -4.9100 C.3   149  THR149      0.1808
    106  OG1      -43.9210   63.1240   -6.3210 O.3   149  THR149     -0.2208
    107  CG2      -44.7160   61.6320   -4.6440 C.3   149  THR149      0.0379
    108  N        -46.0650   63.9510   -2.1990 N.am  150  LYS150     -0.1963
    109  CA       -46.1290   64.0410   -0.7390 C.3   150  LYS150      0.1728
    110  C        -45.3120   62.9890    0.0050 C.2   150  LYS150      0.2616
    111  O        -45.4090   61.7870   -0.2890 O.2   150  LYS150     -0.2715
    112  CB       -47.5770   64.0150   -0.2700 C.3   150  LYS150      0.0311
    113  CG       -48.1300   65.3690    0.1150 C.3   150  LYS150      0.0038
    114  CD       -48.6890   66.1410   -1.0480 C.3   150  LYS150      0.0206
    115  CE       -49.5090   67.3010   -0.5180 C.3   150  LYS150      0.1093
    116  NZ       -49.8710   68.2660   -1.5920 N.3   150  LYS150     -0.1314
    117  N        -44.5180   63.4590    0.9690 N.am  151  GLY151     -0.1955
    118  CA       -43.6640   62.5850    1.7580 C.3   151  GLY151      0.1869
    119  C        -43.0080   63.2720    2.9320 C.2   151  GLY151      0.2309
    120  O        -43.3720   64.3890    3.3000 O.2   151  GLY151     -0.2863
    121  N        -39.5760   64.8210    4.4840 N.3   153  CYS153     -0.1235
    122  CA       -38.2370   65.3400    4.2240 C.3   153  CYS153      0.1677
    123  C        -37.8080   66.2110    5.4080 C.2   153  CYS153      0.2270
    124  O        -37.2950   67.3180    5.2390 O.2   153  CYS153     -0.2867
    125  CB       -38.1510   66.0660    2.8580 C.3   153  CYS153      0.0956
    126  SG       -39.4250   67.2710    2.4780 S.3   153  CYS153     -0.0801
    127  N        -34.8280   69.3120    6.2300 N.3   157  MET157     -0.1245
    128  CA       -35.1600   70.6300    6.7730 C.3   157  MET157      0.1570
    129  C        -34.3080   70.9570    7.9930 C.2   157  MET157      0.2261
    130  O        -33.8780   72.0910    8.1600 O.2   157  MET157     -0.2867
    131  CB       -36.6390   70.6940    7.1440 C.3   157  MET157      0.0387
    132  CG       -37.5770   70.5130    5.9680 C.3   157  MET157      0.0595
    133  SD       -37.3560   71.7060    4.6370 S.3   157  MET157     -0.1393
    134  CE       -37.1610   70.6130    3.2700 C.3   157  MET157      0.0692
@<TRIPOS>BOND
     1    52    51    2
     2    53    51   am
     3    51    50    1
     4    50    47    1
     5    29    28    1
     6    49    48    2
     7    12    11    2
     8    47    48    1
     9    47    46    1
    10    48    54   am
    11   106   105    1
    12    38    36   ar
    13    30    28    1
    14    13    11   am
    15    27    28    1
    16    27    24    1
    17    11    10    1
    18    26    25    2
    19    93    94    1
    20    54    55    1
    21    25    24    1
    22    25    31   am
    23    94    95    1
    24    94    97    1
    25    36    37   ar
    26    36    35    1
    27    24    23    1
    28   105   107    1
    29   105   102    1
    30   101    95   am
    31   101   102    1
    32    10     7    1
    33    55    56    1
    34    55    58    1
    35    95    96    2
    36     9     8    2
    37     7     8    1
    38     7     6    1
    39    32    31    1
    40    32    35    1
    41    32    33    1
    42   102   103    1
    43    57    56    2
    44    34    33    2
    45    59    58    1
    46    59    60    1
    47    98    97    1
    48    98   100    1
    49    97    99    1
    50     8    14   am
    51    33    39   am
    52    61    60    1
    53    61    62    2
    54    64    62    1
    55   103   104    2
    56   103   108   am
    57    62    63    1
    58    39    40    1
    59    14    15    1
    60    41    42    2
    61    41    40    1
    62   108   109    1
    63    85    83   ar
    64    89    88    2
    65    40    43    1
    66    15    16    1
    67    15    18    1
    68   116   115    1
    69    16    17    2
    70    88    87    1
    71    83    82    1
    72    83    84   ar
    73   114   115    1
    74   114   113    1
    75    81    80    2
    76     4     3    2
    77    82    79    1
    78   109   112    1
    79   109   110    1
    80     1     2    1
    81    19    18    1
    82    19    20    1
    83    43    45    1
    84    43    44    1
    85     2     3    1
    86     2     5    1
    87   111   110    2
    88   112   113    1
    89    80    79    1
    90    80    86   am
    91   110   117   am
    92    87    86    1
    93    87    90    1
    94    79    78    1
    95    86    92    1
    96    68    67    2
    97    66    65    1
    98    66    67    1
    99    66    69    1
   100    21    20    1
   101    21    22    1
   102    78    72   am
   103   117   118    1
   104    67    70   am
   105    90    91    1
   106    92    91    1
   107   118   119    1
   108    70    71    1
   109    72    71    1
   110    72    73    2
   111    71    74    1
   112   126   125    1
   113   125   122    1
   114   119   120    2
   115   134   133    1
   116    76    75    2
   117    74    75    1
   118   122   121    1
   119   122   123    1
   120    75    77   am
   121   133   132    1
   122   124   123    2
   123   132   131    1
   124   127   128    1
   125   128   131    1
   126   128   129    1
   127   129   130    2
