@<TRIPOS>MOLECULE
tmp/2c7lA00.pdb
 222 218 0 0 0
SMALL
GASTEIGER

@<TRIPOS>ATOM
      1  N          3.1270   38.5680   -8.3160 N.3    59  VAL59      -0.1231
      2  CA         4.2710   39.3030   -8.8590 C.3    59  VAL59       0.1692
      3  C          5.6130   38.5860   -8.6390 C.2    59  VAL59       0.2592
      4  O          6.5650   38.7990   -9.3920 O.2    59  VAL59      -0.2718
      5  CB         4.2840   40.7920   -8.3630 C.3    59  VAL59       0.0266
      6  CG1        4.5810   40.8910   -6.8740 C.3    59  VAL59       0.0020
      7  CG2        5.2540   41.6330   -9.1830 C.3    59  VAL59       0.0020
      8  N          5.6460   37.6850   -7.6560 N.am   60  TYR60      -0.1976
      9  CA         6.8430   36.8980   -7.3440 C.3    60  TYR60       0.1639
     10  C          6.9440   35.6820   -8.2690 C.2    60  TYR60       0.2290
     11  O          7.8840   34.8860   -8.1800 O.2    60  TYR60      -0.2864
     12  CB         6.8200   36.4450   -5.8770 C.3    60  TYR60       0.0560
     13  CG         6.7840   37.5690   -4.8560 C.ar   60  TYR60      -0.0198
     14  CD1        7.3640   38.8320   -5.1300 C.ar   60  TYR60      -0.0009
     15  CD2        6.1600   37.3820   -3.6060 C.ar   60  TYR60      -0.0009
     16  CE1        7.3190   39.8850   -4.1830 C.ar   60  TYR60       0.0417
     17  CE2        6.1070   38.4320   -2.6440 C.ar   60  TYR60       0.0417
     18  CZ         6.6900   39.6760   -2.9480 C.ar   60  TYR60       0.1957
     19  OH         6.6450   40.7000   -2.0400 O.3    60  TYR60      -0.2866
     20  N         12.4670   40.2570   -8.3850 N.3    66  THR66      -0.1218
     21  CA        12.0850   40.9520   -7.1550 C.3    66  THR66       0.1862
     22  C         12.4510   40.2050   -5.8720 C.2    66  THR66       0.2287
     23  O         12.9080   40.8180   -4.9010 O.2    66  THR66      -0.2866
     24  CB        10.5720   41.2540   -7.1300 C.3    66  THR66       0.1770
     25  OG1        9.8320   40.0410   -7.3210 O.3    66  THR66      -0.2211
     26  CG2       10.2080   42.2310   -8.2240 C.3    66  THR66       0.0375
     27  N         18.7700   45.7670    1.2020 N.3    72  PRO72      -0.2102
     28  CA        18.3670   47.1420    1.5480 C.3    72  PRO72       0.1504
     29  C         17.2420   47.8420    0.7570 C.2    72  PRO72       0.2576
     30  O         16.6550   48.8070    1.2620 O.2    72  PRO72      -0.2718
     31  CB        19.6870   47.9190    1.4780 C.3    72  PRO72       0.0282
     32  CG        20.4790   47.1600    0.4640 C.3    72  PRO72       0.0208
     33  CD        20.2130   45.7380    0.8740 C.3    72  PRO72       0.0893
     34  N         16.9390   47.3580   -0.4510 N.am   73  GLN73      -0.1966
     35  CA        15.8860   47.9640   -1.2780 C.3    73  GLN73       0.1733
     36  C         14.9670   47.0280   -2.0850 C.2    73  GLN73       0.2616
     37  O         14.2160   47.5030   -2.9480 O.2    73  GLN73      -0.2715
     38  CB        16.4720   49.0600   -2.1990 C.3    73  GLN73       0.0408
     39  CG        17.5390   48.6040   -3.1990 C.3    73  GLN73       0.0908
     40  CD        17.9210   49.6990   -4.1830 C.2    73  GLN73       0.2608
     41  OE1       18.7900   50.5260   -3.9050 O.2    73  GLN73      -0.2717
     42  NE2       17.2680   49.7080   -5.3390 N.am   73  GLN73      -0.0878
     43  N         14.9980   45.7210   -1.8020 N.am   74  TYR74      -0.1960
     44  CA        14.1560   44.7600   -2.5320 C.3    74  TYR74       0.1771
     45  C         13.2930   43.7760   -1.7310 C.2    74  TYR74       0.2619
     46  O         13.4830   43.6010   -0.5240 O.2    74  TYR74      -0.2715
     47  CB        14.9710   44.0250   -3.6010 C.3    74  TYR74       0.0574
     48  CG        14.8430   44.6470   -4.9750 C.ar   74  TYR74      -0.0198
     49  CD1       13.8290   44.2300   -5.8590 C.ar   74  TYR74      -0.0009
     50  CD2       15.7160   45.6760   -5.3980 C.ar   74  TYR74      -0.0009
     51  CE1       13.6800   44.8230   -7.1420 C.ar   74  TYR74       0.0417
     52  CE2       15.5750   46.2840   -6.6810 C.ar   74  TYR74       0.0417
     53  CZ        14.5530   45.8490   -7.5420 C.ar   74  TYR74       0.1957
     54  OH        14.3970   46.4340   -8.7780 O.3    74  TYR74      -0.2866
     55  N         12.3620   43.1260   -2.4400 N.am   75  ALA75      -0.1977
     56  CA        11.3940   42.1740   -1.8780 C.3    75  ALA75       0.1597
     57  C         11.8680   40.7430   -1.5920 C.2    75  ALA75       0.2287
     58  O         11.0700   39.7970   -1.6240 O.2    75  ALA75      -0.2864
     59  CB        10.1410   42.1480   -2.7540 C.3    75  ALA75       0.0319
     60  N          9.8390   42.9350    3.1510 N.3    80  GLY80      -0.1225
     61  CA         9.5200   43.5060    1.8470 C.3    80  GLY80       0.1811
     62  C          8.1990   42.9990    1.2940 C.2    80  GLY80       0.2280
     63  O          7.5040   43.7150    0.5710 O.2    80  GLY80      -0.2866
     64  N          5.4610   44.8620    2.9420 N.3    83  LYS83      -0.1231
     65  CA         5.3200   46.1980    2.3700 C.3    83  LYS83       0.1693
     66  C          4.6360   46.1140    1.0110 C.2    83  LYS83       0.2592
     67  O          4.0030   47.0690    0.5720 O.2    83  LYS83      -0.2718
     68  CB         6.6730   46.9040    2.2630 C.3    83  LYS83       0.0285
     69  CG         7.2190   47.3400    3.6130 C.3    83  LYS83       0.0035
     70  CD         8.5020   48.1240    3.4800 C.3    83  LYS83       0.0206
     71  CE         8.9750   48.6120    4.8380 C.3    83  LYS83       0.1093
     72  NZ        10.2180   49.4240    4.7210 N.3    83  LYS83      -0.1314
     73  N          4.7240   44.9420    0.3830 N.am   84  CYS84      -0.1970
     74  CA         4.0980   44.7000   -0.9130 C.3    84  CYS84       0.1712
     75  C          2.6060   44.4490   -0.7910 C.2    84  CYS84       0.2296
     76  O          1.8460   44.7980   -1.6930 O.2    84  CYS84      -0.2864
     77  CB         4.7490   43.5360   -1.6470 C.3    84  CYS84       0.0983
     78  SG         4.4900   43.6150   -3.4330 S.3    84  CYS84      -0.0798
     79  N          0.9470   45.6600    1.7860 N.3    86  ARG86      -0.1231
     80  CA         0.5860   46.9830    2.3270 C.3    86  ARG86       0.1694
     81  C          0.3230   48.0100    1.2230 C.2    86  ARG86       0.2592
     82  O         -0.7040   48.6810    1.2520 O.2    86  ARG86      -0.2718
     83  CB         1.7000   47.4850    3.2600 C.3    86  ARG86       0.0321
     84  CG         1.4590   48.8060    3.9810 C.3    86  ARG86       0.0489
     85  CD         2.7730   49.4950    4.3080 C.3    86  ARG86       0.2205
     86  NE         3.5870   49.7070    3.1070 N.pl3  86  ARG86      -0.0865
     87  CZ         4.7670   50.3280    3.0720 C.cat  86  ARG86       0.5346
     88  NH1        5.3160   50.8320    4.1730 N.pl3  86  ARG86       0.1354
     89  NH2        5.4180   50.4200    1.9210 N.pl3  86  ARG86       0.1354
     90  N          1.2310   48.0770    0.2430 N.am   87  ASP87      -0.1960
     91  CA         1.1230   48.9890   -0.8970 C.3    87  ASP87       0.1840
     92  C         -0.0680   48.6420   -1.7800 C.2    87  ASP87       0.2621
     93  O         -0.8340   49.5320   -2.1550 O.2    87  ASP87      -0.2715
     94  CB         2.3980   48.9560   -1.7410 C.3    87  ASP87       0.1450
     95  CG         3.5530   49.7150   -1.1100 C.2    87  ASP87       0.3671
     96  OD1        3.5580   49.9280    0.1220 O.co2  87  ASP87      -0.2456
     97  OD2        4.4730   50.1050   -1.8550 O.co2  87  ASP87      -0.2456
     98  N         -0.2390   47.3450   -2.0640 N.am   88  ILE88      -0.1977
     99  CA        -1.3480   46.8440   -2.8850 C.3    88  ILE88       0.1596
    100  C         -2.6720   47.0210   -2.1330 C.2    88  ILE88       0.2287
    101  O         -3.6980   47.3130   -2.7460 O.2    88  ILE88      -0.2864
    102  CB        -1.1130   45.3440   -3.3300 C.3    88  ILE88       0.0276
    103  CG1        0.0820   45.2460   -4.2980 C.3    88  ILE88       0.0022
    104  CG2       -2.3510   44.7380   -4.0180 C.3    88  ILE88       0.0022
    105  CD1       -0.0790   45.9810   -5.6400 C.3    88  ILE88       0.0001
    106  N         -3.1910   49.4560   -0.0180 N.3    90  HIS90      -0.1226
    107  CA        -3.3950   50.9080   -0.0270 C.3    90  HIS90       0.1752
    108  C         -4.0650   51.2970   -1.3350 C.2    90  HIS90       0.2596
    109  O         -4.9490   52.1490   -1.3490 O.2    90  HIS90      -0.2718
    110  CB        -2.0650   51.6650    0.0760 C.3    90  HIS90       0.0759
    111  CG        -1.4670   51.7000    1.4500 C.ar   90  HIS90       0.0818
    112  ND1       -0.1930   52.1700    1.6830 N.ar   90  HIS90      -0.2268
    113  CD2       -1.9580   51.3330    2.6580 C.ar   90  HIS90       0.1154
    114  CE1        0.0770   52.0910    2.9730 C.ar   90  HIS90       0.1986
    115  NE2       -0.9770   51.5870    3.5890 N.ar   90  HIS90      -0.2212
    116  N         -3.6470   50.6370   -2.4180 N.am   91  TYR91      -0.1976
    117  CA        -4.1870   50.8640   -3.7580 C.3    91  TYR91       0.1639
    118  C         -5.6450   50.4240   -3.8490 C.2    91  TYR91       0.2290
    119  O         -6.4890   51.1880   -4.3070 O.2    91  TYR91      -0.2864
    120  CB        -3.3640   50.1140   -4.8070 C.3    91  TYR91       0.0560
    121  CG        -2.2500   50.9100   -5.4460 C.ar   91  TYR91      -0.0198
    122  CD1       -2.4460   51.5600   -6.6800 C.ar   91  TYR91      -0.0009
    123  CD2       -0.9760   50.9920   -4.8450 C.ar   91  TYR91      -0.0009
    124  CE1       -1.3880   52.2800   -7.3150 C.ar   91  TYR91       0.0417
    125  CE2        0.0860   51.7060   -5.4630 C.ar   91  TYR91       0.0417
    126  CZ        -0.1300   52.3440   -6.6970 C.ar   91  TYR91       0.1957
    127  OH         0.8990   53.0290   -7.2990 O.3    91  TYR91      -0.2866
    128  N         -7.7040   49.9390   -1.3610 N.3    93  ARG93      -0.1231
    129  CA        -8.4410   50.7290   -0.3820 C.3    93  ARG93       0.1694
    130  C         -8.8430   52.0710   -0.9770 C.2    93  ARG93       0.2592
    131  O         -9.9540   52.5390   -0.7740 O.2    93  ARG93      -0.2718
    132  CB        -7.5580   50.9090    0.8470 C.3    93  ARG93       0.0321
    133  CG        -8.2390   51.2720    2.1400 C.3    93  ARG93       0.0489
    134  CD        -7.2700   51.1210    3.3140 C.3    93  ARG93       0.2205
    135  NE        -5.9720   51.7820    3.1270 N.pl3  93  ARG93      -0.0865
    136  CZ        -5.7470   53.0930    3.2120 C.cat  93  ARG93       0.5346
    137  NH1       -6.7320   53.9380    3.4830 N.pl3  93  ARG93       0.1354
    138  NH2       -4.5260   53.5640    3.0200 N.pl3  93  ARG93       0.1354
    139  N         -7.9450   52.6310   -1.7820 N.am   94  THR94      -0.1953
    140  CA        -8.1500   53.9060   -2.4550 C.3    94  THR94       0.1897
    141  C         -9.1250   53.7680   -3.6440 C.2    94  THR94       0.2313
    142  O         -9.8570   54.7120   -3.9630 O.2    94  THR94      -0.2863
    143  CB        -6.7900   54.5080   -2.8700 C.3    94  THR94       0.1794
    144  OG1       -5.9480   54.5890   -1.7160 O.3    94  THR94      -0.2208
    145  CG2       -6.9470   55.8930   -3.4310 C.3    94  THR94       0.0378
    146  N         -4.5750   60.7280   -3.5690 N.3   110  TYR110     -0.1227
    147  CA        -3.8590   59.7320   -2.7790 C.3   110  TYR110      0.1736
    148  C         -2.7810   58.9550   -3.5270 C.2   110  TYR110      0.2595
    149  O         -1.7680   58.5940   -2.9230 O.2   110  TYR110     -0.2718
    150  CB        -4.8260   58.7670   -2.0830 C.3   110  TYR110      0.0548
    151  CG        -5.9310   59.3810   -1.2080 C.ar  110  TYR110     -0.0200
    152  CD1       -5.9230   60.7460   -0.8310 C.ar  110  TYR110     -0.0009
    153  CD2       -6.9890   58.5760   -0.7300 C.ar  110  TYR110     -0.0009
    154  CE1       -6.9310   61.2880    0.0050 C.ar  110  TYR110      0.0417
    155  CE2       -8.0040   59.1130    0.1030 C.ar  110  TYR110      0.0417
    156  CZ        -7.9620   60.4650    0.4670 C.ar  110  TYR110      0.1957
    157  OH        -8.9170   60.9850    1.3100 O.3   110  TYR110     -0.2866
    158  N         -2.9940   58.6580   -4.8140 N.am  111  VAL111     -0.1980
    159  CA        -1.9710   57.9260   -5.5730 C.3   111  VAL111      0.1595
    160  C         -1.4060   58.5430   -6.8610 C.2   111  VAL111      0.2287
    161  O         -0.2110   58.4010   -7.1040 O.2   111  VAL111     -0.2864
    162  CB        -2.3210   56.4080   -5.8520 C.3   111  VAL111      0.0276
    163  CG1       -2.7760   55.6850   -4.5910 C.3   111  VAL111      0.0022
    164  CG2       -3.3260   56.2540   -6.9700 C.3   111  VAL111      0.0022
    165  N          7.9090   59.8120   -7.2720 N.3   118  PHE118     -0.1241
    166  CA         8.2270   58.9110   -6.1660 C.3   118  PHE118      0.1605
    167  C          8.8470   57.5740   -6.5950 C.2   118  PHE118      0.2264
    168  O          9.8210   57.1250   -5.9840 O.2   118  PHE118     -0.2867
    169  CB         6.9620   58.6690   -5.3200 C.3   118  PHE118      0.0534
    170  CG         7.1780   57.7810   -4.1210 C.ar  118  PHE118     -0.0203
    171  CD1        7.9780   58.2120   -3.0490 C.ar  118  PHE118     -0.0042
    172  CD2        6.6080   56.4920   -4.0720 C.ar  118  PHE118     -0.0042
    173  CE1        8.2130   57.3720   -1.9370 C.ar  118  PHE118     -0.0003
    174  CE2        6.8310   55.6400   -2.9680 C.ar  118  PHE118     -0.0003
    175  CZ         7.6380   56.0850   -1.9010 C.ar  118  PHE118     -0.0000
    176  N         12.5780   56.2090   -5.6860 N.3   122  LEU122     -0.1245
    177  CA        12.8150   55.0370   -4.8440 C.3   122  LEU122      0.1561
    178  C         13.0860   53.7170   -5.5480 C.2   122  LEU122      0.2260
    179  O         13.0320   52.6500   -4.9240 O.2   122  LEU122     -0.2867
    180  CB        11.7110   54.8820   -3.7950 C.3   122  LEU122      0.0270
    181  CG        12.1760   55.3730   -2.4260 C.3   122  LEU122      0.0019
    182  CD1       12.0740   56.8710   -2.3670 C.3   122  LEU122      0.0001
    183  CD2       11.3490   54.7540   -1.3460 C.3   122  LEU122      0.0001
    184  N         11.3600   52.0660   -7.7250 N.3   124  LEU124     -0.1245
    185  CA        10.1900   51.2150   -7.8620 C.3   124  LEU124      0.1561
    186  C          9.7560   51.1870   -9.3180 C.2   124  LEU124      0.2260
    187  O          9.7790   52.2170   -9.9970 O.2   124  LEU124     -0.2867
    188  CB         9.0420   51.7110   -6.9770 C.3   124  LEU124      0.0270
    189  CG         9.2620   51.7820   -5.4600 C.3   124  LEU124      0.0019
    190  CD1        8.0930   52.4850   -4.8200 C.3   124  LEU124      0.0001
    191  CD2        9.4410   50.3980   -4.8600 C.3   124  LEU124      0.0001
    192  N          5.4080   46.2250  -11.7390 N.3   128  TRP128     -0.1227
    193  CA         4.9990   45.3150  -10.6580 C.3   128  TRP128      0.1737
    194  C          3.5940   45.6080  -10.1590 C.2   128  TRP128      0.2595
    195  O          2.8510   44.7020   -9.7800 O.2   128  TRP128     -0.2718
    196  CB         5.9150   45.4540   -9.4420 C.3   128  TRP128      0.0564
    197  CG         7.3720   45.3560   -9.6750 C.ar  128  TRP128      0.0003
    198  CD1        8.0180   44.5710  -10.5870 C.ar  128  TRP128      0.0946
    199  CD2        8.3870   46.0660   -8.9640 C.ar  128  TRP128      0.0152
    200  NE1        9.3780   44.7490  -10.4900 N.ar  128  TRP128     -0.2442
    201  CE2        9.6370   45.6610   -9.5010 C.ar  128  TRP128      0.0810
    202  CE3        8.3680   47.0070   -7.9130 C.ar  128  TRP128      0.0012
    203  CZ2       10.8700   46.1700   -9.0290 C.ar  128  TRP128      0.0191
    204  CZ3        9.5950   47.5140   -7.4360 C.ar  128  TRP128      0.0001
    205  CH2       10.8290   47.0890   -7.9990 C.ar  128  TRP128      0.0015
    206  N          3.2850   46.8990  -10.0900 N.am  129  TYR129     -0.1976
    207  CA         2.0010   47.3940   -9.6180 C.3   129  TYR129      0.1639
    208  C          0.8780   47.2150  -10.6230 C.2   129  TYR129      0.2290
    209  O         -0.2690   47.0070  -10.2310 O.2   129  TYR129     -0.2864
    210  CB         2.1310   48.8530   -9.1980 C.3   129  TYR129      0.0560
    211  CG         2.9290   49.0530   -7.9340 C.ar  129  TYR129     -0.0198
    212  CD1        2.3290   48.8730   -6.6700 C.ar  129  TYR129     -0.0009
    213  CD2        4.2870   49.4360   -7.9840 C.ar  129  TYR129     -0.0009
    214  CE1        3.0620   49.0730   -5.4740 C.ar  129  TYR129      0.0417
    215  CE2        5.0360   49.6400   -6.7930 C.ar  129  TYR129      0.0417
    216  CZ         4.4110   49.4560   -5.5440 C.ar  129  TYR129      0.1957
    217  OH         5.1110   49.6680   -4.3810 O.3   129  TYR129     -0.2866
    218  N          0.0510   43.2820  -10.5630 N.3   132  ALA132     -0.1245
    219  CA        -0.7530   42.8200   -9.4320 C.3   132  ALA132      0.1562
    220  C         -2.1720   43.3940   -9.4420 C.2   132  ALA132      0.2260
    221  O         -3.0650   42.8690   -8.7700 O.2   132  ALA132     -0.2867
    222  CB        -0.0520   43.1510   -8.1250 C.3   132  ALA132      0.0290
@<TRIPOS>BOND
     1   192   193    1
     2   193   194    1
     3   193   196    1
     4   208   209    2
     5   208   207    1
     6   198   200   ar
     7   198   197   ar
     8   218   219    1
     9   200   201   ar
    10   194   206   am
    11   194   195    2
    12   206   207    1
    13   187   186    2
    14   197   196    1
    15   197   199   ar
    16   207   210    1
    17   201   203   ar
    18   201   199   ar
    19   220   219    1
    20   220   221    2
    21   219   222    1
    22     4     3    2
    23   186   185    1
    24   210   211    1
    25     7     5    1
    26   203   205   ar
    27   199   202   ar
    28     2     3    1
    29     2     5    1
    30     2     1    1
    31    54    53    1
    32     3     8   am
    33    20    21    1
    34     5     6    1
    35    10    11    2
    36    10     9    1
    37    26    24    1
    38   205   204   ar
    39   213   211   ar
    40   213   215   ar
    41   211   212   ar
    42   202   204   ar
    43   185   184    1
    44   185   188    1
    45     8     9    1
    46    53    51   ar
    47    53    52   ar
    48     9    12    1
    49    25    24    1
    50   124   126   ar
    51   124   122   ar
    52   127   126    1
    53   165   166    1
    54    21    24    1
    55    21    22    1
    56    51    49   ar
    57   161   160    2
    58   188   189    1
    59   164   162    1
    60   160   159    1
    61   215   216   ar
    62   126   125   ar
    63    52    50   ar
    64   122   121   ar
    65   212   214   ar
    66   167   166    1
    67   167   168    2
    68   166   169    1
    69    12    13    1
    70    22    23    2
    71    49    48   ar
    72   162   159    1
    73   162   163    1
    74   176   177    1
    75   105   103    1
    76   159   158    1
    77   178   179    2
    78   178   177    1
    79   216   214   ar
    80   216   217    1
    81   125   123   ar
    82   189   191    1
    83   189   190    1
    84   121   123   ar
    85   121   120    1
    86    50    48   ar
    87    42    40   am
    88   169   170    1
    89    14    13   ar
    90    14    16   ar
    91    48    47    1
    92    13    15   ar
    93   177   180    1
    94   158   148   am
    95   120   117    1
    96   119   118    2
    97   103   102    1
    98    16    18   ar
    99    40    41    2
   100    40    39    1
   101   170   172   ar
   102   170   171   ar
   103   172   174   ar
   104   104   102    1
   105   142   141    2
   106   118   117    1
   107   180   181    1
   108   117   116    1
   109   141   140    1
   110    15    17   ar
   111    47    44    1
   112   146   147    1
   113   148   149    2
   114   148   147    1
   115    78    77    1
   116   145   143    1
   117   102    99    1
   118    39    38    1
   119   171   173   ar
   120   174   175   ar
   121    18    17   ar
   122    18    19    1
   123    37    36    2
   124    99   100    1
   125    99    98    1
   126   143   140    1
   127   143   144    1
   128   147   150    1
   129    59    56    1
   130   101   100    2
   131    44    43    1
   132    44    45    1
   133   140   139    1
   134    55    56    1
   135    55    45   am
   136   181   182    1
   137   181   183    1
   138   116   108   am
   139    38    35    1
   140    93    92    2
   141    36    43   am
   142    36    35    1
   143   150   151    1
   144    98    92   am
   145   173   175   ar
   146    56    57    1
   147    97    95   ar
   148   139   130   am
   149    92    91    1
   150    94    95    1
   151    94    91    1
   152    45    46    2
   153    76    75    2
   154    77    74    1
   155    58    57    2
   156   128   129    1
   157   109   108    2
   158   108   107    1
   159    35    34    1
   160   151   152   ar
   161   151   153   ar
   162    95    96   ar
   163   130   131    2
   164   130   129    1
   165    74    75    1
   166    74    73    1
   167    91    90    1
   168   152   154   ar
   169   153   155   ar
   170    34    29   am
   171   129   132    1
   172   107   106    1
   173   107   110    1
   174   154   156   ar
   175   110   111    1
   176   155   156   ar
   177    90    81   am
   178    73    66   am
   179    32    33    1
   180    32    31    1
   181   156   157    1
   182    63    62    2
   183    67    66    2
   184    29    30    2
   185    29    28    1
   186   132   133    1
   187    33    27    1
   188    66    65    1
   189    27    28    1
   190    81    82    2
   191    81    80    1
   192    62    61    1
   193   111   112   ar
   194   111   113   ar
   195    31    28    1
   196   112   114   ar
   197    79    80    1
   198    61    60    1
   199    89    87    1
   200   133   134    1
   201    68    65    1
   202    68    69    1
   203    80    83    1
   204    65    64    1
   205   113   115   ar
   206   114   115   ar
   207   138   136    1
   208    87    86    2
   209    87    88    1
   210    86    85    1
   211   135   136    2
   212   135   134    1
   213   136   137    1
   214    83    84    1
   215    70    69    1
   216    70    71    1
   217    84    85    1
   218    72    71    1
