@<TRIPOS>MOLECULE
tmp/2c7lB00.pdb
 216 208 0 0 0
SMALL
GASTEIGER

@<TRIPOS>ATOM
      1  N        -35.2590   92.7870    7.4440 N.3    59  LEU59      -0.1245
      2  CA       -34.1270   93.2610    8.2370 C.3    59  LEU59       0.1561
      3  C        -34.1530   94.7760    8.3870 C.2    59  LEU59       0.2260
      4  O        -33.9140   95.2830    9.4820 O.2    59  LEU59      -0.2867
      5  CB       -32.8000   92.7900    7.6320 C.3    59  LEU59       0.0270
      6  CG       -31.4750   93.1090    8.3430 C.3    59  LEU59       0.0019
      7  CD1      -31.4240   92.5000    9.7290 C.3    59  LEU59       0.0001
      8  CD2      -30.3320   92.6070    7.4950 C.3    59  LEU59       0.0001
      9  N        -29.8020  101.0950   10.9830 N.3    66  VAL66      -0.1231
     10  CA       -28.6750  100.5130   10.2550 C.3    66  VAL66       0.1692
     11  C        -28.5960  100.9060    8.7700 C.2    66  VAL66       0.2592
     12  O        -27.5030  101.1280    8.2460 O.2    66  VAL66      -0.2718
     13  CB       -28.7010   98.9370   10.4020 C.3    66  VAL66       0.0266
     14  CG1      -27.6400   98.2530    9.5440 C.3    66  VAL66       0.0020
     15  CG2      -28.4970   98.5370   11.8610 C.3    66  VAL66       0.0020
     16  N        -29.7510  101.0460    8.1230 N.am   67  PHE67      -0.1976
     17  CA       -29.8080  101.3460    6.6930 C.3    67  PHE67       0.1639
     18  C        -29.9850  102.7890    6.2380 C.2    67  PHE67       0.2290
     19  O        -29.7750  103.0960    5.0560 O.2    67  PHE67      -0.2864
     20  CB       -30.8270  100.4250    6.0270 C.3    67  PHE67       0.0560
     21  CG       -30.4800   98.9770    6.1520 C.ar   67  PHE67      -0.0200
     22  CD1      -30.9350   98.2280    7.2520 C.ar   67  PHE67      -0.0042
     23  CD2      -29.6430   98.3630    5.2060 C.ar   67  PHE67      -0.0042
     24  CE1      -30.5550   96.8710    7.4190 C.ar   67  PHE67      -0.0003
     25  CE2      -29.2450   97.0070    5.3500 C.ar   67  PHE67      -0.0003
     26  CZ       -29.7030   96.2580    6.4610 C.ar   67  PHE67      -0.0000
     27  N        -24.2390  101.6780    9.2280 N.3    72  PRO72      -0.2102
     28  CA       -23.1620  101.0030    8.4980 C.3    72  PRO72       0.1504
     29  C        -23.5020  100.6490    7.0540 C.2    72  PRO72       0.2576
     30  O        -22.5980  100.4020    6.2460 O.2    72  PRO72      -0.2718
     31  CB       -22.9430   99.7350    9.3200 C.3    72  PRO72       0.0282
     32  CG       -23.4640  100.0910   10.6800 C.3    72  PRO72       0.0208
     33  CD       -24.7020  100.8230   10.3340 C.3    72  PRO72       0.0893
     34  N        -24.7960  100.6730    6.7280 N.am   73  CYS73      -0.1971
     35  CA       -25.2380  100.3210    5.3920 C.3    73  CYS73       0.1712
     36  C        -25.9880  101.3440    4.5350 C.2    73  CYS73       0.2296
     37  O        -26.8060  100.9630    3.6950 O.2    73  CYS73      -0.2864
     38  CB       -26.0110   99.0190    5.4400 C.3    73  CYS73       0.0983
     39  SG       -25.9950   98.1130    3.8830 S.3    73  CYS73      -0.0798
     40  N        -24.3440  101.7030   -2.9630 N.3    77  ARG77      -0.1231
     41  CA       -23.2390  100.7610   -3.0840 C.3    77  ARG77       0.1694
     42  C        -23.3260   99.7510   -1.9460 C.2    77  ARG77       0.2592
     43  O        -23.1460   98.5520   -2.1590 O.2    77  ARG77      -0.2718
     44  CB       -21.9150  101.5370   -3.0280 C.3    77  ARG77       0.0321
     45  CG       -20.7270  100.8980   -3.7510 C.3    77  ARG77       0.0489
     46  CD       -19.7470  100.2410   -2.7920 C.3    77  ARG77       0.2205
     47  NE       -19.3350  101.1490   -1.7220 N.pl3  77  ARG77      -0.0865
     48  CZ       -18.9130  100.7610   -0.5210 C.cat  77  ARG77       0.5346
     49  NH1      -18.8410   99.4680   -0.2190 N.pl3  77  ARG77       0.1354
     50  NH2      -18.5690  101.6730    0.3830 N.pl3  77  ARG77       0.1354
     51  N        -23.6820  100.2480   -0.7630 N.am   78  ASN78      -0.1974
     52  CA       -23.8080   99.4330    0.4420 C.3    78  ASN78       0.1688
     53  C        -25.0740   98.5960    0.5100 C.2    78  ASN78       0.2292
     54  O        -25.0280   97.4500    0.9750 O.2    78  ASN78      -0.2864
     55  CB       -23.6870  100.2920    1.6950 C.3    78  ASN78       0.1181
     56  CG       -22.2530  100.6400    2.0300 C.2    78  ASN78       0.2629
     57  OD1      -21.9430  101.7800    2.3690 O.2    78  ASN78      -0.2716
     58  ND2      -21.3710   99.6540    1.9480 N.am   78  ASN78      -0.0877
     59  N        -24.4230   95.8110   -1.7500 N.3    81  ALA81      -0.1231
     60  CA       -23.4130   94.9430   -1.1290 C.3    81  ALA81       0.1694
     61  C        -24.0220   94.0110   -0.0730 C.2    81  ALA81       0.2592
     62  O        -23.6240   92.8500    0.0380 O.2    81  ALA81      -0.2718
     63  CB       -22.3030   95.7730   -0.5120 C.3    81  ALA81       0.0304
     64  N        -25.0300   94.5110    0.6450 N.am   82  CYS82      -0.1970
     65  CA       -25.7180   93.7380    1.6750 C.3    82  CYS82       0.1712
     66  C        -26.5620   92.6220    1.0630 C.2    82  CYS82       0.2296
     67  O        -26.4960   91.4730    1.5220 O.2    82  CYS82      -0.2864
     68  CB       -26.5690   94.6590    2.5410 C.3    82  CYS82       0.0983
     69  SG       -27.2350   94.0110    4.1190 S.3    82  CYS82      -0.0798
     70  N        -26.0840   91.3390   -1.9260 N.3    84  ARG84      -0.1231
     71  CA       -25.1060   90.4730   -2.5870 C.3    84  ARG84       0.1694
     72  C        -24.5380   89.4540   -1.5930 C.2    84  ARG84       0.2592
     73  O        -24.4660   88.2580   -1.8890 O.2    84  ARG84      -0.2718
     74  CB       -23.9750   91.3300   -3.1440 C.3    84  ARG84       0.0321
     75  CG       -22.9320   90.5820   -3.9320 C.3    84  ARG84       0.0489
     76  CD       -21.6560   91.3820   -3.9970 C.3    84  ARG84       0.2205
     77  NE       -21.1010   91.6220   -2.6680 N.pl3  84  ARG84      -0.0865
     78  CZ       -20.1690   92.5330   -2.4050 C.cat  84  ARG84       0.5346
     79  NH1      -19.6760   93.2950   -3.3750 N.pl3  84  ARG84       0.1354
     80  NH2      -19.7270   92.6920   -1.1680 N.pl3  84  ARG84       0.1354
     81  N        -24.1830   89.9390   -0.4040 N.am   85  ASP85      -0.1960
     82  CA       -23.6320   89.1090    0.6640 C.3    85  ASP85       0.1840
     83  C        -24.6360   88.0960    1.1780 C.2    85  ASP85       0.2621
     84  O        -24.2630   86.9740    1.5340 O.2    85  ASP85      -0.2715
     85  CB       -23.1370   89.9800    1.8180 C.3    85  ASP85       0.1450
     86  CG       -21.7370   90.4940    1.6030 C.2    85  ASP85       0.3671
     87  OD1      -21.0250   90.6180    2.6120 O.co2  85  ASP85      -0.2456
     88  OD2      -21.3460   90.7750    0.4460 O.co2  85  ASP85      -0.2456
     89  N        -25.9100   88.4910    1.1860 N.am   86  LEU86      -0.1977
     90  CA       -26.9930   87.6210    1.6250 C.3    86  LEU86       0.1596
     91  C        -27.2700   86.5820    0.5400 C.2    86  LEU86       0.2287
     92  O        -27.6220   85.4360    0.8410 O.2    86  LEU86      -0.2864
     93  CB       -28.2310   88.4550    1.9600 C.3    86  LEU86       0.0297
     94  CG       -28.7810   88.4540    3.3980 C.3    86  LEU86       0.0022
     95  CD1      -27.6960   88.2640    4.4590 C.3    86  LEU86       0.0001
     96  CD2      -29.5480   89.7390    3.6410 C.3    86  LEU86       0.0001
     97  N        -24.8750   85.4700   -1.3560 N.3    88  PHE88      -0.1227
     98  CA       -23.6910   84.6190   -1.2660 C.3    88  PHE88       0.1736
     99  C        -23.9390   83.5220   -0.2460 C.2    88  PHE88       0.2595
    100  O        -23.7760   82.3560   -0.5710 O.2    88  PHE88      -0.2718
    101  CB       -22.4470   85.4080   -0.8220 C.3    88  PHE88       0.0547
    102  CG       -21.7640   86.1920   -1.9150 C.ar   88  PHE88      -0.0202
    103  CD1      -21.8640   85.8190   -3.2700 C.ar   88  PHE88      -0.0042
    104  CD2      -20.9780   87.3100   -1.5790 C.ar   88  PHE88      -0.0042
    105  CE1      -21.1800   86.5590   -4.2860 C.ar   88  PHE88      -0.0003
    106  CE2      -20.2920   88.0570   -2.5720 C.ar   88  PHE88      -0.0003
    107  CZ       -20.3920   87.6810   -3.9300 C.ar   88  PHE88      -0.0000
    108  N        -24.3640   83.9010    0.9650 N.am   89  ILE89      -0.1980
    109  CA       -24.6530   82.9590    2.0590 C.3    89  ILE89       0.1595
    110  C        -25.6290   81.8800    1.5880 C.2    89  ILE89       0.2287
    111  O        -25.3440   80.6910    1.7520 O.2    89  ILE89      -0.2864
    112  CB       -25.2560   83.6860    3.3300 C.3    89  ILE89       0.0276
    113  CG1      -24.2370   84.6400    3.9750 C.3    89  ILE89       0.0022
    114  CG2      -25.7920   82.6670    4.3660 C.3    89  ILE89       0.0022
    115  CD1      -22.9880   83.9800    4.5490 C.3    89  ILE89       0.0001
    116  N        -26.3790   80.9660   -1.5560 N.3    91  ARG91      -0.1231
    117  CA       -25.7660   80.1780   -2.6230 C.3    91  ARG91       0.1694
    118  C        -24.8410   79.1120   -2.1020 C.2    91  ARG91       0.2592
    119  O        -24.7390   78.0400   -2.6830 O.2    91  ARG91      -0.2718
    120  CB       -25.0130   81.0730   -3.5980 C.3    91  ARG91       0.0321
    121  CG       -24.7640   80.4320   -4.9490 C.3    91  ARG91       0.0489
    122  CD       -23.9430   81.3230   -5.8310 C.3    91  ARG91       0.2205
    123  NE       -22.5470   81.3210   -5.4180 N.pl3  91  ARG91      -0.0865
    124  CZ       -21.7720   82.3940   -5.3730 C.cat  91  ARG91       0.5346
    125  NH1      -22.2480   83.5800   -5.7170 N.pl3  91  ARG91       0.1354
    126  NH2      -20.5130   82.2720   -4.9850 N.pl3  91  ARG91       0.1354
    127  N        -24.2010   79.4100   -0.9800 N.am   92  TYR92      -0.1976
    128  CA       -23.2850   78.4860   -0.3520 C.3    92  TYR92       0.1639
    129  C        -23.9970   77.5040    0.5680 C.2    92  TYR92       0.2290
    130  O        -23.4800   76.4110    0.8180 O.2    92  TYR92      -0.2864
    131  CB       -22.1630   79.2410    0.3530 C.3    92  TYR92       0.0560
    132  CG       -21.1210   79.7910   -0.5910 C.ar   92  TYR92      -0.0198
    133  CD1      -20.1320   78.9510   -1.1490 C.ar   92  TYR92      -0.0009
    134  CD2      -21.1040   81.1600   -0.9310 C.ar   92  TYR92      -0.0009
    135  CE1      -19.1410   79.4700   -2.0360 C.ar   92  TYR92       0.0417
    136  CE2      -20.1270   81.6970   -1.8080 C.ar   92  TYR92       0.0417
    137  CZ       -19.1490   80.8460   -2.3590 C.ar   92  TYR92       0.1957
    138  OH       -18.2110   81.3600   -3.2280 O.3    92  TYR92      -0.2866
    139  N        -14.5500   78.6520    1.3780 N.3   108  ARG108     -0.1231
    140  CA       -14.5930   79.8700    0.5660 C.3   108  ARG108      0.1694
    141  C        -15.7410   80.8610    0.7690 C.2   108  ARG108      0.2592
    142  O        -16.1670   81.5000   -0.1860 O.2   108  ARG108     -0.2718
    143  CB       -14.4100   79.5340   -0.9340 C.3   108  ARG108      0.0321
    144  CG       -15.4110   78.5480   -1.5410 C.3   108  ARG108      0.0489
    145  CD       -14.7430   77.2260   -1.9590 C.3   108  ARG108      0.2205
    146  NE       -14.5240   77.1030   -3.4080 N.pl3 108  ARG108     -0.0865
    147  CZ       -13.8850   76.0880   -3.9970 C.cat 108  ARG108      0.5346
    148  NH1      -13.3780   75.0940   -3.2720 N.pl3 108  ARG108      0.1354
    149  NH2      -13.8120   76.0270   -5.3220 N.pl3 108  ARG108      0.1354
    150  N        -16.1900   81.0560    2.0080 N.am  109  CYS109     -0.1970
    151  CA       -17.2910   81.9970    2.2820 C.3   109  CYS109      0.1712
    152  C        -17.3220   82.5240    3.7100 C.2   109  CYS109      0.2296
    153  O        -17.4590   83.7320    3.9270 O.2   109  CYS109     -0.2864
    154  CB       -18.6570   81.3590    1.9470 C.3   109  CYS109      0.0983
    155  SG       -20.1540   82.3380    2.3340 S.3   109  CYS109     -0.0798
    156  N        -14.6990   85.8570    7.5310 N.3   113  LEU113     -0.1245
    157  CA       -15.8620   86.7210    7.3850 C.3   113  LEU113      0.1561
    158  C        -16.1170   87.6150    8.5920 C.2   113  LEU113      0.2260
    159  O        -16.4300   88.7980    8.4250 O.2   113  LEU113     -0.2867
    160  CB       -17.1110   85.9140    7.0040 C.3   113  LEU113      0.0270
    161  CG       -18.2860   86.6990    6.3960 C.3   113  LEU113      0.0019
    162  CD1      -17.8300   87.5470    5.2220 C.3   113  LEU113      0.0001
    163  CD2      -19.3910   85.7630    5.9680 C.3   113  LEU113      0.0001
    164  N        -13.6430   90.2960    8.3550 N.3   116  THR116     -0.1203
    165  CA       -13.9410   91.2290    7.2600 C.3   116  THR116      0.1994
    166  C        -14.9390   92.2780    7.7460 C.2   116  THR116      0.2617
    167  O        -14.7520   93.4690    7.5260 O.2   116  THR116     -0.2717
    168  CB       -14.5280   90.4700    6.0240 C.3   116  THR116      0.1784
    169  OG1      -13.5140   89.6350    5.4600 O.3   116  THR116     -0.2211
    170  CG2      -15.0420   91.4150    4.9490 C.3   116  THR116      0.0376
    171  N        -15.9740   91.8150    8.4390 N.am  117  TYR117     -0.1975
    172  CA       -17.0090   92.6820    8.9700 C.3   117  TYR117      0.1639
    173  C        -16.5230   93.5780   10.1080 C.2   117  TYR117      0.2290
    174  O        -16.9700   94.7210   10.2320 O.2   117  TYR117     -0.2864
    175  CB       -18.2170   91.8450    9.4030 C.3   117  TYR117      0.0560
    176  CG       -19.0260   91.2410    8.2650 C.ar  117  TYR117     -0.0198
    177  CD1      -19.8720   90.1420    8.4980 C.ar  117  TYR117     -0.0009
    178  CD2      -18.9950   91.7860    6.9580 C.ar  117  TYR117     -0.0009
    179  CE1      -20.6750   89.5990    7.4610 C.ar  117  TYR117      0.0417
    180  CE2      -19.7980   91.2530    5.9170 C.ar  117  TYR117      0.0417
    181  CZ       -20.6320   90.1610    6.1850 C.ar  117  TYR117      0.1957
    182  OH       -21.4310   89.6450    5.1980 O.3   117  TYR117     -0.2866
    183  N        -14.5490   96.3140    8.5510 N.3   120  LEU120     -0.1245
    184  CA       -15.3720   97.1610    7.6810 C.3   120  LEU120      0.1561
    185  C        -16.3980   97.9850    8.4340 C.2   120  LEU120      0.2260
    186  O        -16.9340   98.9440    7.8900 O.2   120  LEU120     -0.2867
    187  CB       -16.0610   96.3240    6.5990 C.3   120  LEU120      0.0270
    188  CG       -15.4800   96.2770    5.1760 C.3   120  LEU120      0.0019
    189  CD1      -13.9720   96.0310    5.1320 C.3   120  LEU120      0.0001
    190  CD2      -16.1970   95.1840    4.4210 C.3   120  LEU120      0.0001
    191  N        -19.1960   96.7130    9.6790 N.3   122  THR122     -0.1204
    192  CA       -20.4710   96.0190    9.4930 C.3   122  THR122      0.1979
    193  C        -20.7370   95.2570   10.8030 C.2   122  THR122      0.2459
    194  O        -19.8450   94.5500   11.2840 O.2   122  THR122     -0.2732
    195  CB       -20.3650   95.0550    8.2800 C.3   122  THR122      0.1783
    196  OG1      -20.1010   95.8090    7.0870 O.3   122  THR122     -0.2211
    197  CG2      -21.6300   94.2290    8.0890 C.3   122  THR122      0.0376
    198  N        -21.9520   95.4060   11.3990 N.am  123  PRO123     -0.2728
    199  CA       -22.3340   94.7480   12.6590 C.3   123  PRO123      0.1401
    200  C        -21.9510   93.2880   12.8590 C.2   123  PRO123      0.2269
    201  O        -20.8710   92.9990   13.3930 O.2   123  PRO123     -0.2865
    202  CB       -23.8440   94.9610   12.7050 C.3   123  PRO123      0.0296
    203  CG       -23.9870   96.2970   12.1160 C.3   123  PRO123      0.0237
    204  CD       -23.0970   96.1980   10.9020 C.3   123  PRO123      0.0939
    205  N        -26.5250   91.8180   12.9540 N.3   126  ALA126     -0.1231
    206  CA       -27.4960   92.2720   11.9600 C.3   126  ALA126      0.1694
    207  C        -27.4050   91.4000   10.7060 C.2   126  ALA126      0.2591
    208  O        -28.3490   91.3370    9.9340 O.2   126  ALA126     -0.2718
    209  CB       -27.2520   93.7280   11.5990 C.3   126  ALA126      0.0304
    210  N        -26.2520   90.7620   10.4950 N.am  127  VAL127     -0.1980
    211  CA       -26.0410   89.8770    9.3470 C.3   127  VAL127      0.1595
    212  C        -26.5980   88.5110    9.7280 C.2   127  VAL127      0.2287
    213  O        -27.0990   87.7800    8.8770 O.2   127  VAL127     -0.2864
    214  CB       -24.5460   89.7190    8.9780 C.3   127  VAL127      0.0276
    215  CG1      -24.4030   88.9860    7.6540 C.3   127  VAL127      0.0022
    216  CG2      -23.8700   91.0580    8.9000 C.3   127  VAL127      0.0022
@<TRIPOS>BOND
     1   122   123    1
     2   122   121    1
     3   125   124    1
     4   123   124    2
     5   124   126    1
     6   149   147    1
     7   121   120    1
     8   105   107   ar
     9   105   103   ar
    10   147   146    2
    11   147   148    1
    12    76    75    1
    13    76    77    1
    14    75    74    1
    15   107   106   ar
    16    45    44    1
    17    45    46    1
    18   120   117    1
    19   146   145    1
    20    79    78    1
    21   103   102   ar
    22   138   137    1
    23    74    71    1
    24    41    44    1
    25    41    40    1
    26    41    42    1
    27    46    47    1
    28   119   118    2
    29    77    78    2
    30   117   118    1
    31   117   116    1
    32    71    70    1
    33    71    72    1
    34   106   104   ar
    35    78    80    1
    36   137   135   ar
    37   137   136   ar
    38    43    42    2
    39   118   127   am
    40   135   133   ar
    41   145   144    1
    42    42    51   am
    43   102   104   ar
    44   102   101    1
    45    73    72    2
    46   136   134   ar
    47    59    60    1
    48    47    48    2
    49    72    81   am
    50   144   143    1
    51    97    98    1
    52    98   101    1
    53    98    99    1
    54   133   132   ar
    55    60    63    1
    56    60    61    1
    57   127   128    1
    58   143   140    1
    59   134   132   ar
    60    51    52    1
    61   132   131    1
    62   100    99    2
    63    48    49    1
    64    48    50    1
    65    81    82    1
    66   128   131    1
    67   128   129    1
    68    99   108   am
    69   142   141    2
    70    61    62    2
    71    61    64   am
    72    52    53    1
    73    52    55    1
    74    88    86   ar
    75    53    54    2
    76    91    92    2
    77    91    90    1
    78   140   141    1
    79   140   139    1
    80   129   130    2
    81    64    65    1
    82    82    83    1
    83    82    85    1
    84   141   150   am
    85   108   109    1
    86    66    67    2
    87    66    65    1
    88    83    89   am
    89    83    84    2
    90    89    90    1
    91   110   111    2
    92   110   109    1
    93    86    85    1
    94    86    87   ar
    95    90    93    1
    96    65    68    1
    97    55    56    1
    98   154   151    1
    99   154   155    1
   100    58    56   am
   101    93    94    1
   102   150   151    1
   103    56    57    2
   104   109   112    1
   105   151   152    1
   106    68    69    1
   107   112   113    1
   108   112   114    1
   109    94    96    1
   110    94    95    1
   111    37    36    2
   112   152   153    2
   113    39    38    1
   114   113   115    1
   115   190   188    1
   116    36    35    1
   117   170   168    1
   118    19    18    2
   119   189   188    1
   120   188   187    1
   121   182   181    1
   122    23    25   ar
   123    23    21   ar
   124   162   161    1
   125    25    26   ar
   126    35    38    1
   127    35    34    1
   128   169   168    1
   129   180   181   ar
   130   180   178   ar
   131   163   161    1
   132   168   165    1
   133    20    21    1
   134    20    17    1
   135    21    22   ar
   136   181   179   ar
   137    18    17    1
   138    30    29    2
   139   161   160    1
   140    26    24   ar
   141   187   184    1
   142    17    16    1
   143    34    29   am
   144   178   176   ar
   145   160   157    1
   146    29    28    1
   147   196   195    1
   148    22    24   ar
   149   165   166    1
   150   165   164    1
   151   157   156    1
   152   157   158    1
   153     1     2    1
   154   179   177   ar
   155     8     6    1
   156   167   166    2
   157     5     2    1
   158     5     6    1
   159   215   214    1
   160   184   185    1
   161   184   183    1
   162   166   171   am
   163   186   185    2
   164   197   195    1
   165    16    11   am
   166     2     3    1
   167    12    11    2
   168   176   177   ar
   169   176   175    1
   170   195   192    1
   171     6     7    1
   172     3     4    2
   173   159   158    2
   174   171   172    1
   175    28    27    1
   176    28    31    1
   177    11    10    1
   178   213   212    2
   179   216   214    1
   180   172   175    1
   181   172   173    1
   182   214   211    1
   183    27    33    1
   184    31    32    1
   185   211   212    1
   186   211   210    1
   187   192   191    1
   188   192   193    1
   189    14    13    1
   190   208   207    2
   191   173   174    2
   192    10    13    1
   193    10     9    1
   194    33    32    1
   195    13    15    1
   196   210   207   am
   197   207   206    1
   198   193   194    2
   199   193   198   am
   200   204   198    1
   201   204   203    1
   202   198   199    1
   203   209   206    1
   204   206   205    1
   205   203   202    1
   206   199   202    1
   207   199   200    1
   208   200   201    2
