@<TRIPOS>MOLECULE
tmp/2c80B01.pdb
 159 158 0 0 0
SMALL
GASTEIGER

@<TRIPOS>ATOM
      1  N          7.4740   14.4410   13.3770 N.3     7  TYR7       -0.1227
      2  CA         7.3050   15.8470   13.0230 C.3     7  TYR7        0.1736
      3  C          8.2080   16.7240   13.8760 C.2     7  TYR7        0.2595
      4  O          8.9610   16.2250   14.7080 O.2     7  TYR7       -0.2718
      5  CB         5.8470   16.2710   13.2070 C.3     7  TYR7        0.0548
      6  CG         5.4690   17.5480   12.4890 C.ar    7  TYR7       -0.0200
      7  CD1        5.6390   17.6710   11.1070 C.ar    7  TYR7       -0.0009
      8  CD2        4.9270   18.6230   13.1840 C.ar    7  TYR7       -0.0009
      9  CE1        5.2850   18.8390   10.4410 C.ar    7  TYR7        0.0417
     10  CE2        4.5680   19.7930   12.5270 C.ar    7  TYR7        0.0417
     11  CZ         4.7510   19.8920   11.1550 C.ar    7  TYR7        0.1957
     12  OH         4.4050   21.0460   10.4970 O.3     7  TYR7       -0.2866
     13  N          8.1360   18.0330   13.6620 N.am    8  PHE8       -0.1976
     14  CA         8.8430   18.9810   14.5030 C.3     8  PHE8        0.1639
     15  C          8.0700   19.1700   15.8110 C.2     8  PHE8        0.2290
     16  O          7.0010   18.5740   15.9930 O.2     8  PHE8       -0.2864
     17  CB         9.0860   20.2900   13.7380 C.3     8  PHE8        0.0560
     18  CG         9.8720   20.0960   12.4610 C.ar    8  PHE8       -0.0200
     19  CD1        9.2410   20.1670   11.2210 C.ar    8  PHE8       -0.0042
     20  CD2       11.2290   19.7940   12.5020 C.ar    8  PHE8       -0.0042
     21  CE1        9.9530   19.9710   10.0350 C.ar    8  PHE8       -0.0003
     22  CE2       11.9530   19.5860   11.3270 C.ar    8  PHE8       -0.0003
     23  CZ        11.3140   19.6770   10.0860 C.ar    8  PHE8       -0.0000
     24  N          1.2560   22.2300   13.4850 N.3    12  GLY12      -0.1210
     25  CA         1.5610   22.2560   12.0510 C.3    12  GLY12       0.1956
     26  C          0.7690   21.2480   11.2560 C.2    12  GLY12       0.2611
     27  O         -0.4490   21.1340   11.4270 O.2    12  GLY12      -0.2717
     28  N          1.4720   20.5050   10.4070 N.am   13  ARG13      -0.1979
     29  CA         0.8540   19.5200    9.5120 C.3    13  ARG13       0.1597
     30  C          0.6150   18.1550   10.1490 C.2    13  ARG13       0.2287
     31  O         -0.1100   17.3370    9.5880 O.2    13  ARG13      -0.2864
     32  CB         1.6820   19.3330    8.2290 C.3    13  ARG13       0.0334
     33  CG         1.9160   20.5980    7.4180 C.3    13  ARG13       0.0492
     34  CD         0.6300   21.2790    6.9740 C.3    13  ARG13       0.2205
     35  NE        -0.1350   20.4810    6.0200 N.pl3  13  ARG13      -0.0865
     36  CZ        -1.3290   20.8270    5.5390 C.cat  13  ARG13       0.5346
     37  NH1       -1.9640   20.0320    4.6800 N.pl3  13  ARG13       0.1354
     38  NH2       -1.8940   21.9690    5.9140 N.pl3  13  ARG13       0.1354
     39  N         17.5200   18.1750   12.8990 N.3    38  TRP38      -0.1241
     40  CA        16.8930   17.9090   11.5980 C.3    38  TRP38       0.1605
     41  C         17.8670   17.5320   10.4630 C.2    38  TRP38       0.2264
     42  O         17.6010   16.5800    9.7340 O.2    38  TRP38      -0.2867
     43  CB        15.9280   19.0420   11.1980 C.3    38  TRP38       0.0550
     44  CG        15.2940   18.8710    9.8330 C.ar   38  TRP38       0.0003
     45  CD1       15.3220   19.7670    8.8070 C.ar   38  TRP38       0.0946
     46  CD2       14.5540   17.7340    9.3500 C.ar   38  TRP38       0.0152
     47  NE1       14.6510   19.2690    7.7220 N.ar   38  TRP38      -0.2442
     48  CE2       14.1710   18.0220    8.0240 C.ar   38  TRP38       0.0810
     49  CE3       14.1790   16.5060    9.9090 C.ar   38  TRP38       0.0012
     50  CZ2       13.4230   17.1300    7.2470 C.ar   38  TRP38       0.0191
     51  CZ3       13.4510   15.6150    9.1340 C.ar   38  TRP38       0.0001
     52  CH2       13.0770   15.9330    7.8170 C.ar   38  TRP38       0.0015
     53  N         17.0200   14.2950    8.5100 N.3    42  LYS42      -0.1245
     54  CA        16.4720   14.5200    7.1570 C.3    42  LYS42       0.1561
     55  C         16.7660   13.4180    6.1220 C.2    42  LYS42       0.2260
     56  O         15.8350   12.9640    5.4550 O.2    42  LYS42      -0.2867
     57  CB        16.8630   15.9110    6.6180 C.3    42  LYS42       0.0271
     58  CG        16.2780   16.2580    5.2560 C.3    42  LYS42       0.0035
     59  CD        16.6530   17.6820    4.8430 C.3    42  LYS42       0.0206
     60  CE        16.1370   18.0190    3.4440 C.3    42  LYS42       0.1093
     61  NZ        14.6740   18.3210    3.4160 N.3    42  LYS42      -0.1314
     62  N         12.4970   13.1830    2.4910 N.3    48  GLY48      -0.1210
     63  CA        13.1910   14.2110    3.2810 C.3    48  GLY48       0.1956
     64  C         12.3520   15.3160    3.9120 C.2    48  GLY48       0.2612
     65  O         12.8760   16.3860    4.2340 O.2    48  GLY48      -0.2717
     66  N         11.0510   15.0740    4.0850 N.am   49  ARG49      -0.1965
     67  CA        10.1690   16.0690    4.6940 C.3    49  ARG49       0.1729
     68  C          9.2270   15.4620    5.7220 C.2    49  ARG49       0.2616
     69  O          8.9080   14.2700    5.6720 O.2    49  ARG49      -0.2715
     70  CB         9.3300   16.8030    3.6430 C.3    49  ARG49       0.0348
     71  CG        10.0750   17.3580    2.4350 C.3    49  ARG49       0.0492
     72  CD         9.2100   18.3180    1.6410 C.3    49  ARG49       0.2205
     73  NE         9.1300   19.6360    2.2680 N.pl3  49  ARG49      -0.0865
     74  CZ         8.2880   20.5960    1.8980 C.cat  49  ARG49       0.5346
     75  NH1        7.4410   20.3940    0.8990 N.pl3  49  ARG49       0.1354
     76  NH2        8.2910   21.7630    2.5310 N.pl3  49  ARG49       0.1354
     77  N          8.7770   16.3030    6.6470 N.am   50  LEU50      -0.1964
     78  CA         7.8280   15.9000    7.6790 C.3    50  LEU50       0.1713
     79  C          6.4810   16.6140    7.5040 C.2    50  LEU50       0.2458
     80  O          6.4260   17.6860    6.9110 O.2    50  LEU50      -0.2730
     81  CB         8.4120   16.1720    9.0700 C.3    50  LEU50       0.0310
     82  CG         9.8040   15.5920    9.3360 C.3    50  LEU50       0.0022
     83  CD1       10.3350   16.0270   10.7030 C.3    50  LEU50       0.0001
     84  CD2        9.8150   14.0700    9.1820 C.3    50  LEU50       0.0001
     85  N          5.3920   16.0280    8.0380 N.am   51  PRO51      -0.2727
     86  CA         5.3510   14.7770    8.7920 C.3    51  PRO51       0.1402
     87  C          5.5740   13.5150    7.9580 C.2    51  PRO51       0.2269
     88  O          5.2150   13.4540    6.7740 O.2    51  PRO51      -0.2865
     89  CB         3.9400   14.7650    9.3820 C.3    51  PRO51       0.0296
     90  CG         3.1480   15.6270    8.4930 C.3    51  PRO51       0.0237
     91  CD         4.0600   16.6460    7.9220 C.3    51  PRO51       0.0939
     92  N          2.8010   12.9990    3.3080 N.3    67  GLU67      -0.1231
     93  CA         1.6430   13.8500    2.9550 C.3    67  GLU67       0.1699
     94  C          0.5320   13.7210    4.0000 C.2    67  GLU67       0.2592
     95  O         -0.2920   12.8120    3.9420 O.2    67  GLU67      -0.2718
     96  CB         1.1210   13.5700    1.5310 C.3    67  GLU67       0.0402
     97  CG         0.2420   14.6810    0.9320 C.3    67  GLU67       0.1161
     98  CD         0.9680   16.0060    0.8220 C.2    67  GLU67       0.3649
     99  OE1        0.3630   17.0540    1.1400 O.co2  67  GLU67      -0.2457
    100  OE2        2.1550   15.9970    0.4350 O.co2  67  GLU67      -0.2457
    101  N          0.5250   14.6670    4.9400 N.am   68  SER68      -0.1952
    102  CA        -0.2900   14.6180    6.1470 C.3    68  SER68       0.1924
    103  C         -1.7700   14.3130    5.9540 C.2    68  SER68       0.2314
    104  O         -2.2950   13.4200    6.6100 O.2    68  SER68      -0.2863
    105  CB        -0.1210   15.9130    6.9590 C.3    68  SER68       0.2116
    106  OG        -0.4690   17.0480    6.1970 O.3    68  SER68      -0.2180
    107  N         -3.2980   31.6440    6.8680 N.3   106  TYR106     -0.1227
    108  CA        -2.4300   31.6790    8.0420 C.3   106  TYR106      0.1736
    109  C         -0.9520   31.4530    7.6830 C.2   106  TYR106      0.2595
    110  O         -0.0740   32.0990    8.2520 O.2   106  TYR106     -0.2718
    111  CB        -2.9170   30.6790    9.1070 C.3   106  TYR106      0.0548
    112  CG        -1.8480   30.2030   10.0740 C.ar  106  TYR106     -0.0200
    113  CD1       -1.5330   30.9380   11.2230 C.ar  106  TYR106     -0.0009
    114  CD2       -1.1550   29.0110    9.8440 C.ar  106  TYR106     -0.0009
    115  CE1       -0.5520   30.5030   12.1110 C.ar  106  TYR106      0.0417
    116  CE2       -0.1650   28.5700   10.7180 C.ar  106  TYR106      0.0417
    117  CZ         0.1270   29.3170   11.8520 C.ar  106  TYR106      0.1957
    118  OH         1.0960   28.8670   12.7190 O.3   106  TYR106     -0.2866
    119  N         -0.6880   30.5500    6.7350 N.am  107  TYR107     -0.1976
    120  CA         0.6790   30.2780    6.2650 C.3   107  TYR107      0.1639
    121  C          1.4370   31.4980    5.7360 C.2   107  TYR107      0.2290
    122  O          2.6560   31.5550    5.8560 O.2   107  TYR107     -0.2864
    123  CB         0.6880   29.1790    5.1980 C.3   107  TYR107      0.0560
    124  CG         0.4920   27.7900    5.7490 C.ar  107  TYR107     -0.0198
    125  CD1        0.0970   26.7360    4.9170 C.ar  107  TYR107     -0.0009
    126  CD2        0.6870   27.5230    7.1040 C.ar  107  TYR107     -0.0009
    127  CE1       -0.0850   25.4510    5.4270 C.ar  107  TYR107      0.0417
    128  CE2        0.5050   26.2540    7.6180 C.ar  107  TYR107      0.0417
    129  CZ         0.1250   25.2280    6.7760 C.ar  107  TYR107      0.1957
    130  OH        -0.0570   23.9810    7.3050 O.3   107  TYR107     -0.2866
    131  N          3.9340   33.3160    8.0840 N.3   110  LEU110     -0.1245
    132  CA         5.0770   32.5550    8.5970 C.3   110  LEU110      0.1561
    133  C          6.3980   32.8480    7.8920 C.2   110  LEU110      0.2260
    134  O          6.4140   33.2410    6.7220 O.2   110  LEU110     -0.2867
    135  CB         4.7990   31.0590    8.4810 C.3   110  LEU110      0.0270
    136  CG         3.5340   30.4520    9.0770 C.3   110  LEU110      0.0019
    137  CD1        3.5020   28.9870    8.6810 C.3   110  LEU110      0.0001
    138  CD2        3.4850   30.6180   10.5920 C.3   110  LEU110      0.0001
    139  N         -4.8840   27.9680   14.7670 N.3   166  HIS166     -0.1241
    140  CA        -3.9580   28.8370   14.0470 C.3   166  HIS166      0.1621
    141  C         -4.4880   30.2550   13.8920 C.2   166  HIS166      0.2264
    142  O         -3.7110   31.2050   13.9460 O.2   166  HIS166     -0.2867
    143  CB        -3.5670   28.2540   12.6920 C.3   166  HIS166      0.0745
    144  CG        -2.5130   27.2000   12.7840 C.ar  166  HIS166      0.0817
    145  ND1       -2.4220   26.1580   11.8890 N.ar  166  HIS166     -0.2268
    146  CD2       -1.5160   27.0150   13.6830 C.ar  166  HIS166      0.1154
    147  CE1       -1.4010   25.3870   12.2190 C.ar  166  HIS166      0.1986
    148  NE2       -0.8390   25.8820   13.3070 N.ar  166  HIS166     -0.2212
    149  N          3.3260   26.9480   16.7350 N.3   208  PHE208     -0.1241
    150  CA         2.7890   26.7710   15.3730 C.3   208  PHE208      0.1605
    151  C          1.9790   25.4850   15.2030 C.2   208  PHE208      0.2264
    152  O          2.2840   24.4880   15.8440 O.2   208  PHE208     -0.2867
    153  CB         3.9010   26.8720   14.3010 C.3   208  PHE208      0.0534
    154  CG         4.9020   25.7300   14.3230 C.ar  208  PHE208     -0.0203
    155  CD1        4.6980   24.5780   13.5550 C.ar  208  PHE208     -0.0042
    156  CD2        6.0660   25.8150   15.0880 C.ar  208  PHE208     -0.0042
    157  CE1        5.6260   23.5210   13.5630 C.ar  208  PHE208     -0.0003
    158  CE2        6.9970   24.7580   15.1030 C.ar  208  PHE208     -0.0003
    159  CZ         6.7700   23.6140   14.3390 C.ar  208  PHE208     -0.0000
@<TRIPOS>BOND
     1   100    98   ar
     2    98    97    1
     3    98    99   ar
     4    75    74    1
     5    97    96    1
     6    96    93    1
     7    72    73    1
     8    72    71    1
     9    74    73    2
    10    74    76    1
    11    71    70    1
    12    62    63    1
    13    93    92    1
    14    93    94    1
    15    63    64    1
    16    61    60    1
    17    60    59    1
    18    70    67    1
    19    64    66   am
    20    64    65    2
    21    95    94    2
    22    94   101   am
    23    66    67    1
    24    37    36    1
    25    67    68    1
    26    59    58    1
    27   125   127   ar
    28   125   124   ar
    29   101   102    1
    30   123   124    1
    31   123   120    1
    32    58    57    1
    33   127   129   ar
    34    56    55    2
    35    36    38    1
    36    36    35    2
    37    69    68    2
    38    68    77   am
    39   121   122    2
    40   121   120    1
    41   124   126   ar
    42   103   102    1
    43   103   104    2
    44    35    34    1
    45    55    54    1
    46   102   105    1
    47   106   105    1
    48   120   119    1
    49    57    54    1
    50    77    78    1
    51   134   133    2
    52   119   109   am
    53    88    87    2
    54   129   130    1
    55   129   128   ar
    56   107   108    1
    57    80    79    2
    58    34    33    1
    59   126   128   ar
    60    54    53    1
    61    50    52   ar
    62    50    48   ar
    63    33    32    1
    64    79    78    1
    65    79    85   am
    66    78    81    1
    67   109   108    1
    68   109   110    2
    69    47    48   ar
    70    47    45   ar
    71    52    51   ar
    72   133   132    1
    73    91    85    1
    74    91    90    1
    75    87    86    1
    76    48    46   ar
    77    85    86    1
    78   108   111    1
    79   131   132    1
    80    32    29    1
    81   135   132    1
    82   135   136    1
    83    90    89    1
    84   137   136    1
    85    86    89    1
    86    45    44   ar
    87    81    82    1
    88   136   138    1
    89   111   112    1
    90    51    49   ar
    91    84    82    1
    92    82    83    1
    93    46    44   ar
    94    46    49   ar
    95    29    30    1
    96    29    28    1
    97    31    30    2
    98    42    41    2
    99    44    43    1
   100   114   112   ar
   101   114   116   ar
   102    21    23   ar
   103    21    19   ar
   104   112   113   ar
   105    23    22   ar
   106    28    26   am
   107     9     7   ar
   108     9    11   ar
   109    41    40    1
   110    12    11    1
   111   116   117   ar
   112     7     6   ar
   113    11    10   ar
   114    43    40    1
   115    19    18   ar
   116   113   115   ar
   117    26    27    2
   118    26    25    1
   119    22    20   ar
   120    40    39    1
   121   117   115   ar
   122   117   118    1
   123   145   147   ar
   124   145   144   ar
   125    25    24    1
   126   147   148   ar
   127    18    20   ar
   128    18    17    1
   129     6     8   ar
   130     6     5    1
   131    10     8   ar
   132   143   144    1
   133   143   140    1
   134   144   146   ar
   135     2     5    1
   136     2     1    1
   137     2     3    1
   138   148   146   ar
   139   155   157   ar
   140   155   154   ar
   141   157   159   ar
   142    13     3   am
   143    13    14    1
   144    17    14    1
   145     3     4    2
   146   141   142    2
   147   141   140    1
   148   140   139    1
   149   153   154    1
   150   153   150    1
   151   154   156   ar
   152   159   158   ar
   153    14    15    1
   154   156   158   ar
   155   151   150    1
   156   151   152    2
   157   150   149    1
   158    15    16    2
