@<TRIPOS>MOLECULE
tmp/2c81A00.pdb
 135 126 0 0 0
SMALL
GASTEIGER

@<TRIPOS>ATOM
      1  N         50.3970   35.0470   49.5570 N.3    58  SER58      -0.1202
      2  CA        51.0540   35.2970   48.2770 C.3    58  SER58       0.2020
      3  C         50.7990   34.1350   47.3350 C.2    58  SER58       0.2619
      4  O         50.3360   33.0710   47.7600 O.2    58  SER58      -0.2717
      5  CB        52.5620   35.4330   48.4840 C.3    58  SER58       0.2103
      6  OG        53.1010   34.2040   48.9500 O.3    58  SER58      -0.2182
      7  N         51.1120   34.3390   46.0560 N.am   59  GLY59      -0.1942
      8  CA        50.9290   33.2900   45.0710 C.3    59  GLY59       0.2014
      9  C         51.9230   32.1740   45.3300 C.2    59  GLY59       0.2639
     10  O         51.6200   31.0000   45.1170 O.2    59  GLY59      -0.2714
     11  N         53.1140   32.5410   45.7970 N.am   60  SER60      -0.1949
     12  CA        54.1550   31.5670   46.1020 C.3    60  SER60       0.1924
     13  C         53.7030   30.6560   47.2340 C.2    60  SER60       0.2314
     14  O         53.8890   29.4380   47.1880 O.2    60  SER60      -0.2863
     15  CB        55.4490   32.2840   46.5060 C.3    60  SER60       0.2116
     16  OG        55.9580   33.0430   45.4270 O.3    60  SER60      -0.2180
     17  N         50.8660   28.2790   46.1230 N.3    63  LEU63      -0.1245
     18  CA        51.3740   27.0890   45.4440 C.3    63  LEU63       0.1561
     19  C         51.9100   26.0780   46.4490 C.2    63  LEU63       0.2260
     20  O         51.6430   24.8760   46.3510 O.2    63  LEU63      -0.2867
     21  CB        52.5000   27.4660   44.4820 C.3    63  LEU63       0.0270
     22  CG        52.1180   28.1450   43.1700 C.3    63  LEU63       0.0019
     23  CD1       53.3630   28.7640   42.5440 C.3    63  LEU63       0.0001
     24  CD2       51.4900   27.1180   42.2300 C.3    63  LEU63       0.0001
     25  N         58.6260   30.2940   33.3140 N.3    84  THR84      -0.1203
     26  CA        57.6810   30.7940   34.3050 C.3    84  THR84       0.1994
     27  C         58.4800   31.5230   35.3750 C.2    84  THR84       0.2617
     28  O         59.7100   31.5470   35.3280 O.2    84  THR84      -0.2717
     29  CB        56.8870   29.6340   34.9670 C.3    84  THR84       0.1784
     30  OG1       55.9870   30.1620   35.9540 O.3    84  THR84      -0.2211
     31  CG2       57.8310   28.6470   35.6360 C.3    84  THR84       0.0376
     32  N         57.7830   32.1380   36.3230 N.am   85  TRP85      -0.1975
     33  CA        58.4530   32.8230   37.4200 C.3    85  TRP85       0.1640
     34  C         59.0680   31.7110   38.2690 C.2    85  TRP85       0.2290
     35  O         58.5300   30.6060   38.3410 O.2    85  TRP85      -0.2864
     36  CB        57.4390   33.6270   38.2340 C.3    85  TRP85       0.0576
     37  CG        58.0210   34.2880   39.4410 C.ar   85  TRP85       0.0006
     38  CD1       57.5400   34.2230   40.7130 C.ar   85  TRP85       0.0946
     39  CD2       59.1990   35.1050   39.4980 C.ar   85  TRP85       0.0152
     40  NE1       58.3390   34.9460   41.5630 N.ar   85  TRP85      -0.2442
     41  CE2       59.3660   35.4980   40.8450 C.ar   85  TRP85       0.0810
     42  CE3       60.1290   35.5440   38.5460 C.ar   85  TRP85       0.0012
     43  CZ2       60.4270   36.3090   41.2660 C.ar   85  TRP85       0.0191
     44  CZ3       61.1840   36.3510   38.9650 C.ar   85  TRP85       0.0001
     45  CH2       61.3220   36.7240   40.3140 C.ar   85  TRP85       0.0015
     46  N         58.9990   31.0040   41.3130 N.3    87  ALA87      -0.1231
     47  CA        58.1780   30.4730   42.4000 C.3    87  ALA87       0.1694
     48  C         57.5120   29.1420   42.0640 C.2    87  ALA87       0.2592
     49  O         57.3010   28.3090   42.9490 O.2    87  ALA87      -0.2718
     50  CB        57.1150   31.4940   42.8100 C.3    87  ALA87       0.0304
     51  N         57.1710   28.9380   40.7950 N.am   88  THR88      -0.1953
     52  CA        56.5310   27.6910   40.3900 C.3    88  THR88       0.1897
     53  C         57.4200   26.5070   40.7680 C.2    88  THR88       0.2313
     54  O         56.9260   25.4380   41.1330 O.2    88  THR88      -0.2863
     55  CB        56.2760   27.6590   38.8710 C.3    88  THR88       0.1794
     56  OG1       55.5920   28.8570   38.4740 O.3    88  THR88      -0.2208
     57  CG2       55.4210   26.4590   38.5070 C.3    88  THR88       0.0378
     58  N         51.2320   26.2450   33.9920 N.3   130  VAL130     -0.1245
     59  CA        51.1370   27.6750   34.2180 C.3   130  VAL130      0.1561
     60  C         50.4590   28.3280   33.0140 C.2   130  VAL130      0.2260
     61  O         50.8110   28.0500   31.8630 O.2   130  VAL130     -0.2867
     62  CB        52.5420   28.3110   34.4110 C.3   130  VAL130      0.0252
     63  CG1       52.3980   29.8040   34.6560 C.3   130  VAL130      0.0019
     64  CG2       53.2740   27.6450   35.5720 C.3   130  VAL130      0.0019
     65  N         48.7260   27.0280   38.0950 N.3   156  ASP156     -0.1239
     66  CA        49.3730   28.2460   38.5630 C.3   156  ASP156      0.1674
     67  C         48.6990   29.3530   37.7490 C.2   156  ASP156      0.2266
     68  O         49.0300   29.5720   36.5820 O.2   156  ASP156     -0.2867
     69  CB        50.8700   28.2000   38.2690 C.3   156  ASP156      0.1410
     70  CG        51.6530   29.1680   39.1220 C.2   156  ASP156      0.3668
     71  OD1       51.1690   30.3010   39.3140 O.co2 156  ASP156     -0.2456
     72  OD2       52.7480   28.7970   39.5990 O.co2 156  ASP156     -0.2456
     73  N         48.5460   32.7320   38.5650 N.3   158  ALA158     -0.1231
     74  CA        48.9810   34.0730   38.9440 C.3   158  ALA158      0.1694
     75  C         48.8880   35.1040   37.8240 C.2   158  ALA158      0.2591
     76  O         48.7800   36.3050   38.0790 O.2   158  ALA158     -0.2718
     77  CB        50.4000   34.0150   39.4660 C.3   158  ALA158      0.0304
     78  N         48.9240   34.6350   36.5850 N.am  159  GLN159     -0.1979
     79  CA        48.8740   35.5300   35.4380 C.3   159  GLN159      0.1601
     80  C         47.6370   35.3190   34.5780 C.2   159  GLN159      0.2287
     81  O         47.6250   35.7130   33.4080 O.2   159  GLN159     -0.2864
     82  CB        50.1240   35.3160   34.5800 C.3   159  GLN159      0.0394
     83  CG        51.4160   35.6780   35.3030 C.3   159  GLN159      0.0908
     84  CD        52.6510   35.3890   34.4790 C.2   159  GLN159      0.2608
     85  OE1       52.5810   35.2660   33.2610 O.2   159  GLN159     -0.2717
     86  NE2       53.7980   35.2920   35.1440 N.am  159  GLN159     -0.0878
     87  N         48.2480   34.6560   42.4770 N.3   180  SER180     -0.1217
     88  CA        49.0540   35.6910   43.1180 C.3   180  SER180      0.1889
     89  C         48.2750   36.9890   42.9900 C.2   180  SER180      0.2288
     90  O         47.5760   37.2020   41.9990 O.2   180  SER180     -0.2866
     91  CB        50.3950   35.8900   42.4130 C.3   180  SER180      0.2089
     92  OG        50.9880   37.1220   42.8260 O.3   180  SER180     -0.2183
     93  N         50.0210   39.9070   43.8230 N.3   182  GLN182     -0.1245
     94  CA        51.1370   40.8360   43.9690 C.3   182  GLN182      0.1566
     95  C         50.8220   42.0460   43.0800 C.2   182  GLN182      0.2260
     96  O         50.0740   41.9240   42.1080 O.2   182  GLN182     -0.2867
     97  CB        52.4260   40.1280   43.5410 C.3   182  GLN182      0.0367
     98  CG        53.7180   40.9140   43.7040 C.3   182  GLN182      0.0905
     99  CD        54.0180   41.7880   42.5020 C.2   182  GLN182      0.2608
    100  OE1       53.4660   41.5830   41.4190 O.2   182  GLN182     -0.2717
    101  NE2       54.9130   42.7530   42.6780 N.am  182  GLN182     -0.0878
    102  N         49.9070   42.0280   39.2140 N.3   185  LYS185     -0.1245
    103  CA        48.8210   41.1860   38.7020 C.3   185  LYS185      0.1561
    104  C         47.5260   41.9450   38.4410 C.2   185  LYS185      0.2260
    105  O         47.3370   43.0490   38.9420 O.2   185  LYS185     -0.2867
    106  CB        48.5530   40.0340   39.6780 C.3   185  LYS185      0.0271
    107  CG        49.8170   39.3430   40.1570 C.3   185  LYS185      0.0035
    108  CD        50.7260   38.9800   38.9970 C.3   185  LYS185      0.0206
    109  CE        52.1170   38.6350   39.4970 C.3   185  LYS185      0.1093
    110  NZ        53.1380   38.7010   38.4170 N.3   185  LYS185     -0.1314
    111  N         50.2350   42.7400   47.9660 N.3   191  GLU191     -0.1231
    112  CA        50.6850   41.3760   48.2270 C.3   191  GLU191      0.1699
    113  C         49.4020   40.5940   48.4860 C.2   191  GLU191      0.2592
    114  O         48.4000   41.1600   48.9310 O.2   191  GLU191     -0.2718
    115  CB        51.5740   41.2900   49.4740 C.3   191  GLU191      0.0402
    116  CG        52.9320   41.9720   49.3820 C.3   191  GLU191      0.1161
    117  CD        53.8930   41.3130   48.4000 C.2   191  GLU191      0.3649
    118  OE1       53.7220   40.1170   48.0670 O.co2 191  GLU191     -0.2457
    119  OE2       54.8450   41.9980   47.9730 O.co2 191  GLU191     -0.2457
    120  N         49.4190   39.3000   48.2070 N.am  192  GLY192     -0.1957
    121  CA        48.2320   38.5090   48.4470 C.3   192  GLY192      0.1869
    122  C         48.2370   37.2480   47.6180 C.2   192  GLY192      0.2309
    123  O         48.9680   37.1500   46.6360 O.2   192  GLY192     -0.2863
    124  N         60.8320   36.4000   30.9760 N.3   335  TYR335     -0.1241
    125  CA        61.8150   35.9420   31.9610 C.3   335  TYR335      0.1605
    126  C         62.8030   34.9990   31.2970 C.2   335  TYR335      0.2264
    127  O         62.5420   34.4620   30.2240 O.2   335  TYR335     -0.2867
    128  CB        61.1720   35.1010   33.0740 C.3   335  TYR335      0.0534
    129  CG        59.8200   35.5290   33.5810 C.ar  335  TYR335     -0.0201
    130  CD1       59.6960   36.5560   34.5090 C.ar  335  TYR335     -0.0009
    131  CD2       58.6630   34.8710   33.1620 C.ar  335  TYR335     -0.0009
    132  CE1       58.4510   36.9200   35.0140 C.ar  335  TYR335      0.0417
    133  CE2       57.4140   35.2270   33.6580 C.ar  335  TYR335      0.0417
    134  CZ        57.3180   36.2530   34.5860 C.ar  335  TYR335      0.1957
    135  OH        56.0930   36.6110   35.0950 O.3   335  TYR335     -0.2866
@<TRIPOS>BOND
     1   127   126    2
     2   124   125    1
     3   126   125    1
     4    61    60    2
     5   125   128    1
     6    60    59    1
     7   128   129    1
     8   131   129   ar
     9   131   133   ar
    10    85    84    2
    11    25    26    1
    12    81    80    2
    13   129   130   ar
    14   133   134   ar
    15    58    59    1
    16    59    62    1
    17    26    29    1
    18    26    27    1
    19    62    63    1
    20    62    64    1
    21    84    86   am
    22    84    83    1
    23   130   132   ar
    24    80    79    1
    25    82    83    1
    26    82    79    1
    27   134   132   ar
    28   134   135    1
    29    29    31    1
    30    29    30    1
    31    28    27    2
    32    27    32   am
    33    79    78    1
    34    32    33    1
    35    68    67    2
    36    78    75   am
    37    33    36    1
    38    33    34    1
    39    67    66    1
    40    75    76    2
    41    75    74    1
    42    65    66    1
    43    36    37    1
    44    34    35    2
    45    69    66    1
    46    69    70    1
    47   110   109    1
    48   104   103    1
    49   104   105    2
    50    56    55    1
    51    57    55    1
    52    42    44   ar
    53    42    39   ar
    54    73    74    1
    55   103   102    1
    56   103   106    1
    57    55    52    1
    58    74    77    1
    59    44    45   ar
    60   108   109    1
    61   108   107    1
    62    70    71   ar
    63    70    72   ar
    64    37    39   ar
    65    37    38   ar
    66    39    41   ar
    67   106   107    1
    68    45    43   ar
    69    52    53    1
    70    52    51    1
    71    38    40   ar
    72    53    54    2
    73    51    48   am
    74    41    43   ar
    75    41    40   ar
    76    46    47    1
    77   100    99    2
    78    90    89    2
    79    48    47    1
    80    48    49    2
    81    96    95    2
    82    24    22    1
    83    47    50    1
    84    91    92    1
    85    91    88    1
    86    87    88    1
    87    99   101   am
    88    99    98    1
    89    23    22    1
    90    89    88    1
    91    95    94    1
    92    22    21    1
    93    97    98    1
    94    97    94    1
    95    93    94    1
    96    21    18    1
    97     8     9    1
    98     8     7    1
    99    10     9    2
   100     9    11   am
   101    16    15    1
   102    18    17    1
   103    18    19    1
   104    11    12    1
   105     7     3   am
   106    12    15    1
   107    12    13    1
   108    20    19    2
   109   123   122    2
   110    14    13    2
   111     3     4    2
   112     3     2    1
   113   122   121    1
   114   111   112    1
   115   119   117   ar
   116   118   117   ar
   117   120   121    1
   118   120   113   am
   119   112   113    1
   120   112   115    1
   121     2     5    1
   122     2     1    1
   123   117   116    1
   124     5     6    1
   125   113   114    2
   126   116   115    1
