@<TRIPOS>MOLECULE
tmp/2c8aA00.pdb
 85 81 0 0 0
SMALL
GASTEIGER

@<TRIPOS>ATOM
      1  N         46.6290   25.7080   34.3330 N.3    84  PHE84      -0.1227
      2  CA        45.5210   25.7030   33.3900 C.3    84  PHE84       0.1736
      3  C         44.5540   26.8500   33.5780 C.2    84  PHE84       0.2595
      4  O         44.3320   27.3240   34.6860 O.2    84  PHE84      -0.2718
      5  CB        44.7310   24.4030   33.5180 C.3    84  PHE84       0.0547
      6  CG        45.5290   23.1800   33.2130 C.ar   84  PHE84      -0.0202
      7  CD1       46.3620   22.6250   34.1750 C.ar   84  PHE84      -0.0042
      8  CD2       45.4470   22.5710   31.9680 C.ar   84  PHE84      -0.0042
      9  CE1       47.1020   21.4920   33.9040 C.ar   84  PHE84      -0.0003
     10  CE2       46.1850   21.4230   31.6950 C.ar   84  PHE84      -0.0003
     11  CZ        47.0160   20.8880   32.6600 C.ar   84  PHE84      -0.0000
     12  N         43.9560   27.2710   32.4730 N.am   85  ARG85      -0.1966
     13  CA        42.8600   28.2170   32.5020 C.3    85  ARG85       0.1729
     14  C         41.8030   27.8150   31.4870 C.2    85  ARG85       0.2616
     15  O         42.0940   27.1470   30.4930 O.2    85  ARG85      -0.2715
     16  CB        43.3590   29.6200   32.1750 C.3    85  ARG85       0.0348
     17  CG        43.6260   30.4750   33.3730 C.3    85  ARG85       0.0492
     18  CD        43.7890   31.9460   33.0170 C.3    85  ARG85       0.2205
     19  NE        42.5350   32.5530   32.5840 N.pl3  85  ARG85      -0.0865
     20  CZ        41.6270   33.0940   33.3970 C.cat  85  ARG85       0.5346
     21  NH1       41.8050   33.1200   34.7140 N.pl3  85  ARG85       0.1354
     22  NH2       40.5160   33.6160   32.8910 N.pl3  85  ARG85       0.1354
     23  N         40.5700   28.1980   31.7700 N.am   86  GLY86      -0.1955
     24  CA        39.5030   28.1730   30.7880 C.3    86  GLY86       0.1869
     25  C         39.0690   29.6090   30.5880 C.2    86  GLY86       0.2309
     26  O         38.9100   30.3310   31.5570 O.2    86  GLY86      -0.2863
     27  N         44.8400   34.1120   37.2820 N.3   131  SER131     -0.1202
     28  CA        44.2810   33.0270   38.0830 C.3   131  SER131      0.2020
     29  C         44.3330   31.7530   37.2500 C.2   131  SER131      0.2619
     30  O         43.7960   31.7230   36.1550 O.2   131  SER131     -0.2717
     31  CB        42.8250   33.3230   38.4340 C.3   131  SER131      0.2103
     32  OG        42.6810   34.5280   39.1760 O.3   131  SER131     -0.2182
     33  N         44.9880   30.7150   37.7610 N.am  132  THR132     -0.1938
     34  CA        45.0650   29.4290   37.0750 C.3   132  THR132      0.2028
     35  C         44.6670   28.3220   38.0290 C.2   132  THR132      0.2642
     36  O         44.4710   28.5600   39.2090 O.2   132  THR132     -0.2714
     37  CB        46.4800   29.1360   36.5560 C.3   132  THR132      0.1808
     38  OG1       47.3690   28.8770   37.6540 O.3   132  THR132     -0.2208
     39  CG2       47.0830   30.3370   35.8300 C.3   132  THR132      0.0379
     40  N         44.5790   27.1080   37.5020 N.am  133  SER133     -0.1949
     41  CA        44.2920   25.9270   38.3060 C.3   133  SER133      0.1924
     42  C         45.3860   24.8950   38.0930 C.2   133  SER133      0.2314
     43  O         46.0200   24.8690   37.0510 O.2   133  SER133     -0.2863
     44  CB        42.9440   25.3320   37.8990 C.3   133  SER133      0.2116
     45  OG        41.8950   26.2660   38.0680 O.3   133  SER133     -0.2180
     46  N         35.7180   25.4510   34.9550 N.3   140  PHE140     -0.1241
     47  CA        36.1740   26.2390   33.8090 C.3   140  PHE140      0.1605
     48  C         36.5200   25.4220   32.5730 C.2   140  PHE140      0.2264
     49  O         36.7830   25.9910   31.5150 O.2   140  PHE140     -0.2867
     50  CB        37.3890   27.0700   34.2170 C.3   140  PHE140      0.0534
     51  CG        37.1630   27.8850   35.4500 C.ar  140  PHE140     -0.0203
     52  CD1       37.7900   27.5600   36.6400 C.ar  140  PHE140     -0.0042
     53  CD2       36.3000   28.9730   35.4250 C.ar  140  PHE140     -0.0042
     54  CE1       37.5650   28.3110   37.7810 C.ar  140  PHE140     -0.0003
     55  CE2       36.0770   29.7280   36.5650 C.ar  140  PHE140     -0.0003
     56  CZ        36.7120   29.3920   37.7430 C.ar  140  PHE140     -0.0000
     57  N         34.6500   25.8240   29.0830 N.3   143  ARG143     -0.1245
     58  CA        34.8080   27.0670   28.3310 C.3   143  ARG143      0.1563
     59  C         35.4770   26.7970   26.9820 C.2   143  ARG143      0.2260
     60  O         36.2130   25.8270   26.8430 O.2   143  ARG143     -0.2867
     61  CB        35.6340   28.0630   29.1450 C.3   143  ARG143      0.0307
     62  CG        34.8750   28.6690   30.2960 C.3   143  ARG143      0.0489
     63  CD        35.6980   29.6370   31.1080 C.3   143  ARG143      0.2205
     64  NE        34.8890   30.4270   32.0340 N.pl3 143  ARG143     -0.0865
     65  CZ        35.3370   31.4670   32.7330 C.cat 143  ARG143      0.5346
     66  NH1       36.6010   31.8580   32.6260 N.pl3 143  ARG143      0.1354
     67  NH2       34.5220   32.1210   33.5530 N.pl3 143  ARG143      0.1354
     68  N         38.5920   25.1440   42.7700 N.3   169  GLN169     -0.1245
     69  CA        39.3590   25.8130   41.7160 C.3   169  GLN169      0.1566
     70  C         40.8520   25.4350   41.6430 C.2   169  GLN169      0.2260
     71  O         41.5090   25.7440   40.6520 O.2   169  GLN169     -0.2867
     72  CB        39.1720   27.3340   41.8220 C.3   169  GLN169      0.0367
     73  CG        37.7170   27.7680   41.6280 C.3   169  GLN169      0.0905
     74  CD        37.4960   29.2860   41.6800 C.2   169  GLN169      0.2608
     75  OE1       36.4220   29.7690   41.3150 O.2   169  GLN169     -0.2717
     76  NE2       38.4870   30.0240   42.1480 N.am  169  GLN169     -0.0878
     77  N         43.4010   26.7370   42.8880 N.3   171  GLU171     -0.1245
     78  CA        43.9030   27.9860   42.3270 C.3   171  GLU171      0.1567
     79  C         45.3690   28.2560   42.6310 C.2   171  GLU171      0.2260
     80  O         45.7770   28.2840   43.7920 O.2   171  GLU171     -0.2867
     81  CB        43.0670   29.1630   42.8130 C.3   171  GLU171      0.0388
     82  CG        43.4720   30.4670   42.1490 C.3   171  GLU171      0.1160
     83  CD        42.4770   31.5870   42.3330 C.2   171  GLU171      0.3649
     84  OE1       41.5270   31.4440   43.1260 O.co2 171  GLU171     -0.2457
     85  OE2       42.6630   32.6270   41.6790 O.co2 171  GLU171     -0.2457
@<TRIPOS>BOND
     1    60    59    2
     2    59    58    1
     3    58    57    1
     4    58    61    1
     5    61    62    1
     6    62    63    1
     7    15    14    2
     8    25    24    1
     9    25    26    2
    10    24    23    1
    11    63    64    1
    12    14    23   am
    13    14    13    1
    14    49    48    2
    15    10     8   ar
    16    10    11   ar
    17     8     6   ar
    18    64    65    2
    19    16    13    1
    20    16    17    1
    21    12    13    1
    22    12     3   am
    23    48    47    1
    24    19    18    1
    25    19    20    2
    26    66    65    1
    27    11     9   ar
    28    65    67    1
    29    22    20    1
    30    18    17    1
    31     6     5    1
    32     6     7   ar
    33     2     5    1
    34     2     3    1
    35     2     1    1
    36    20    21    1
    37     3     4    2
    38    47    50    1
    39    47    46    1
    40     9     7   ar
    41    50    51    1
    42    53    51   ar
    43    53    55   ar
    44    51    52   ar
    45    39    37    1
    46    30    29    2
    47    37    34    1
    48    37    38    1
    49    55    56   ar
    50    52    54   ar
    51    43    42    2
    52    34    33    1
    53    34    35    1
    54    29    33   am
    55    29    28    1
    56    27    28    1
    57    40    35   am
    58    40    41    1
    59    56    54   ar
    60    44    45    1
    61    44    41    1
    62    35    36    2
    63    28    31    1
    64    42    41    1
    65    31    32    1
    66    71    70    2
    67    75    74    2
    68    73    74    1
    69    73    72    1
    70    70    69    1
    71    85    83   ar
    72    74    76   am
    73    69    72    1
    74    69    68    1
    75    82    83    1
    76    82    81    1
    77    78    79    1
    78    78    81    1
    79    78    77    1
    80    83    84   ar
    81    79    80    2
