@<TRIPOS>MOLECULE
tmp/2c8cD00.pdb
 144 134 0 0 0
SMALL
GASTEIGER

@<TRIPOS>ATOM
      1  N         19.3020   -4.8670   34.7620 N.3    40  ALA40      -0.1231
      2  CA        20.4510   -5.0150   35.6650 C.3    40  ALA40       0.1694
      3  C         20.0220   -5.4860   37.0650 C.2    40  ALA40       0.2592
      4  O         20.6350   -6.4060   37.6040 O.2    40  ALA40      -0.2718
      5  CB        21.2310   -3.7180   35.7480 C.3    40  ALA40       0.0304
      6  N         18.9490   -4.8890   37.6080 N.am   41  SER41      -0.1952
      7  CA        18.4180   -5.1900   38.9640 C.3    41  SER41       0.1924
      8  C         17.9720   -6.6380   39.1610 C.2    41  SER41       0.2314
      9  O         18.3670   -7.2980   40.1110 O.2    41  SER41      -0.2863
     10  CB        17.2230   -4.2880   39.2860 C.3    41  SER41       0.2116
     11  OG        17.5770   -3.2730   40.2130 O.3    41  SER41      -0.2180
     12  N         21.1500   -8.8680   38.8620 N.3    44  ASN44      -0.1240
     13  CA        22.1260   -8.7040   39.9160 C.3    44  ASN44       0.1653
     14  C         21.6340   -9.3370   41.1700 C.2    44  ASN44       0.2266
     15  O         22.4140   -9.9430   41.8980 O.2    44  ASN44      -0.2867
     16  CB        22.3900   -7.2400   40.1730 C.3    44  ASN44       0.1155
     17  CG        23.1560   -6.6290   39.0820 C.2    44  ASN44       0.2627
     18  OD1       24.0710   -7.2360   38.5600 O.2    44  ASN44      -0.2716
     19  ND2       22.7700   -5.4350   38.6920 N.am   44  ASN44      -0.0877
     20  N         23.4410  -12.3490   43.5680 N.3    48  ARG48      -0.1245
     21  CA        23.5560  -12.2500   45.0210 C.3    48  ARG48       0.1563
     22  C         22.8830  -13.4570   45.7040 C.2    48  ARG48       0.2260
     23  O         23.5000  -14.2180   46.4500 O.2    48  ARG48      -0.2867
     24  CB        22.8730  -10.9710   45.5260 C.3    48  ARG48       0.0307
     25  CG        23.6110   -9.6740   45.2470 C.3    48  ARG48       0.0489
     26  CD        22.8230   -8.4000   45.6010 C.3    48  ARG48       0.2205
     27  NE        23.4560   -7.2200   44.9990 N.pl3  48  ARG48      -0.0865
     28  CZ        22.8640   -6.3240   44.2010 C.cat  48  ARG48       0.5346
     29  NH1       23.5740   -5.3060   43.7090 N.pl3  48  ARG48       0.1354
     30  NH2       21.5810   -6.4190   43.8960 N.pl3  48  ARG48       0.1354
     31  N         30.1140    5.9580   41.7630 N.3    85  ARG85      -0.1245
     32  CA        28.8820    5.2300   41.9560 C.3    85  ARG85       0.1563
     33  C         28.1950    5.7760   43.1750 C.2    85  ARG85       0.2260
     34  O         28.8620    6.1520   44.1100 O.2    85  ARG85      -0.2867
     35  CB        29.1740    3.7400   42.0960 C.3    85  ARG85       0.0307
     36  CG        27.9570    2.9630   42.2900 C.3    85  ARG85       0.0489
     37  CD        28.1150    1.4870   42.3330 C.3    85  ARG85       0.2205
     38  NE        26.8820    0.9810   42.9110 N.pl3  85  ARG85      -0.0865
     39  CZ        25.7140    0.8910   42.2690 C.cat  85  ARG85       0.5346
     40  NH1       25.5930    1.2030   40.9950 N.pl3  85  ARG85       0.1354
     41  NH2       24.6510    0.4500   42.9070 N.pl3  85  ARG85       0.1354
     42  N         24.9210    5.1260   46.1000 N.3    87  ASP87      -0.1225
     43  CA        24.0930    4.0710   46.6380 C.3    87  ASP87       0.1805
     44  C         23.1710    4.6280   47.7400 C.2    87  ASP87       0.2597
     45  O         23.5120    5.6060   48.3800 O.2    87  ASP87      -0.2718
     46  CB        24.9790    2.9390   47.1710 C.3    87  ASP87       0.1424
     47  CG        25.7010    2.1670   46.0660 C.2    87  ASP87       0.3668
     48  OD1       26.8700    2.5350   45.6920 O.co2  87  ASP87      -0.2456
     49  OD2       25.1640    1.1770   45.5240 O.co2  87  ASP87      -0.2456
     50  N         22.0010    4.0090   47.9300 N.am   88  ASP88      -0.1974
     51  CA        21.1030    4.3280   49.0260 C.3    88  ASP88       0.1709
     52  C         21.5770    3.5520   50.2540 C.2    88  ASP88       0.2293
     53  O         22.4680    2.7230   50.1300 O.2    88  ASP88      -0.2864
     54  CB        19.6480    3.9090   48.7140 C.3    88  ASP88       0.1436
     55  CG        19.0930    4.5210   47.4390 C.2    88  ASP88       0.3671
     56  OD1       19.1480    5.7850   47.2170 O.co2  88  ASP88      -0.2456
     57  OD2       18.5150    3.7670   46.6260 O.co2  88  ASP88      -0.2456
     58  N         20.5240    0.9330   51.9640 N.3    90  ALA90      -0.1231
     59  CA        20.4820   -0.5280   52.0600 C.3    90  ALA90       0.1694
     60  C         21.8060   -1.1220   51.5940 C.2    90  ALA90       0.2592
     61  O         22.1260   -2.2700   51.8710 O.2    90  ALA90      -0.2718
     62  CB        19.2900   -1.1000   51.2200 C.3    90  ALA90       0.0304
     63  N         22.5720   -0.3330   50.8610 N.am   91  TYR91      -0.1976
     64  CA        23.8090   -0.8370   50.3670 C.3    91  TYR91       0.1639
     65  C         24.7260   -1.2970   51.5080 C.2    91  TYR91       0.2290
     66  O         25.5700   -2.1370   51.2790 O.2    91  TYR91      -0.2864
     67  CB        24.4900    0.2070   49.4800 C.3    91  TYR91       0.0560
     68  CG        25.9800   -0.0480   49.2450 C.ar   91  TYR91      -0.0198
     69  CD1       26.4230   -0.8950   48.2170 C.ar   91  TYR91      -0.0009
     70  CD2       26.9430    0.5570   50.0690 C.ar   91  TYR91      -0.0009
     71  CE1       27.8080   -1.1410   48.0160 C.ar   91  TYR91       0.0417
     72  CE2       28.3350    0.3250   49.8780 C.ar   91  TYR91       0.0417
     73  CZ        28.7590   -0.5180   48.8520 C.ar   91  TYR91       0.1957
     74  OH        30.0990   -0.7270   48.7030 O.3    91  TYR91      -0.2866
     75  N         23.7300   -2.6970   54.2470 N.3    93  GLY93      -0.1225
     76  CA        23.1080   -3.8130   54.9210 C.3    93  GLY93       0.1811
     77  C         21.7210   -3.4380   55.4100 C.2    93  GLY93       0.2280
     78  O         21.4280   -2.2580   55.5310 O.2    93  GLY93      -0.2866
     79  N         35.2410   -6.3090   50.1610 N.3   124  ARG124     -0.1231
     80  CA        33.8530   -6.4590   49.9080 C.3   124  ARG124      0.1694
     81  C         33.6720   -7.1740   48.5990 C.2   124  ARG124      0.2592
     82  O         34.1840   -6.7530   47.5880 O.2   124  ARG124     -0.2718
     83  CB        33.2060   -5.1110   49.8500 C.3   124  ARG124      0.0321
     84  CG        31.7500   -5.2230   49.6170 C.3   124  ARG124      0.0489
     85  CD        30.9330   -4.2260   50.3520 C.3   124  ARG124      0.2205
     86  NE        29.5180   -4.5580   50.1150 N.pl3 124  ARG124     -0.0865
     87  CZ        28.4950   -3.7740   50.3640 C.cat 124  ARG124      0.5346
     88  NH1       28.6480   -2.5650   50.8800 N.pl3 124  ARG124      0.1354
     89  NH2       27.3010   -4.2150   50.0850 N.pl3 124  ARG124      0.1354
     90  N         32.9460   -8.2700   48.6220 N.am  125  LEU125     -0.1966
     91  CA        32.7170   -9.0180   47.4130 C.3   125  LEU125      0.1728
     92  C         31.3300   -8.6940   46.8330 C.2   125  LEU125      0.2616
     93  O         30.3480   -8.6730   47.5630 O.2   125  LEU125     -0.2715
     94  CB        32.8480  -10.5000   47.7320 C.3   125  LEU125      0.0311
     95  CG        32.6900  -11.3860   46.5090 C.3   125  LEU125      0.0022
     96  CD1       33.8980  -11.2370   45.6270 C.3   125  LEU125      0.0001
     97  CD2       32.4940  -12.8510   46.9100 C.3   125  LEU125      0.0001
     98  N         31.2540   -8.4430   45.5370 N.am  126  GLU126     -0.1977
     99  CA        29.9740   -8.1830   44.8870 C.3   126  GLU126      0.1602
    100  C         29.6490   -9.2670   43.8470 C.2   126  GLU126      0.2287
    101  O         30.3440   -9.4560   42.8200 O.2   126  GLU126     -0.2864
    102  CB        29.9600   -6.7740   44.2630 C.3   126  GLU126      0.0415
    103  CG        28.7070   -6.4260   43.4600 C.3   126  GLU126      0.1163
    104  CD        27.4130   -6.5110   44.2840 C.2   126  GLU126      0.3649
    105  OE1       27.2790   -5.6760   45.2400 O.co2 126  GLU126     -0.2457
    106  OE2       26.5430   -7.4030   43.9610 O.co2 126  GLU126     -0.2457
    107  N         27.1080   -7.6420   38.7020 N.3   129  TYR129     -0.1241
    108  CA        27.9470   -6.7340   37.9680 C.3   129  TYR129      0.1605
    109  C         27.8620   -5.3790   38.6490 C.2   129  TYR129      0.2264
    110  O         26.9160   -5.1120   39.4190 O.2   129  TYR129     -0.2867
    111  CB        27.4880   -6.6450   36.5420 C.3   129  TYR129      0.0534
    112  CG        27.5970   -7.9590   35.8400 C.ar  129  TYR129     -0.0201
    113  CD1       28.8040   -8.3390   35.2520 C.ar  129  TYR129     -0.0009
    114  CD2       26.5210   -8.8450   35.7870 C.ar  129  TYR129     -0.0009
    115  CE1       28.9440   -9.5480   34.6130 C.ar  129  TYR129      0.0417
    116  CE2       26.6440  -10.0770   35.1500 C.ar  129  TYR129      0.0417
    117  CZ        27.8640  -10.4310   34.5640 C.ar  129  TYR129      0.1957
    118  OH        28.0470  -11.6510   33.9120 O.3   129  TYR129     -0.2866
    119  N         27.6010   -1.4920   38.0330 N.3   131  SER131     -0.1217
    120  CA        27.3520   -0.3250   37.1950 C.3   131  SER131      0.1889
    121  C         27.9390    0.9600   37.8110 C.2   131  SER131      0.2288
    122  O         27.4520    1.4060   38.8250 O.2   131  SER131     -0.2866
    123  CB        25.8450   -0.1500   36.9980 C.3   131  SER131      0.2089
    124  OG        25.3400   -1.1070   36.0520 O.3   131  SER131     -0.2183
    125  N         22.0830   11.2420   37.7410 N.3   139  GLN139     -0.1245
    126  CA        21.5000    9.9500   38.0640 C.3   139  GLN139      0.1566
    127  C         21.7130    9.6460   39.5510 C.2   139  GLN139      0.2260
    128  O         20.7860    9.2070   40.2260 O.2   139  GLN139     -0.2867
    129  CB        22.1010    8.8430   37.1600 C.3   139  GLN139      0.0367
    130  CG        22.2800    7.4050   37.7950 C.3   139  GLN139      0.0905
    131  CD        22.8730    6.3600   36.8100 C.2   139  GLN139      0.2608
    132  OE1       23.0290    5.1780   37.1670 O.2   139  GLN139     -0.2717
    133  NE2       23.1990    6.7960   35.5800 N.am  139  GLN139     -0.0878
    134  N         22.4360   10.8050   45.9690 N.3   143  ARG143     -0.1245
    135  CA        22.2940    9.7210   46.9210 C.3   143  ARG143      0.1563
    136  C         23.2020    9.9500   48.1440 C.2   143  ARG143      0.2260
    137  O         24.1250   10.7830   48.1010 O.2   143  ARG143     -0.2867
    138  CB        22.5480    8.3880   46.2430 C.3   143  ARG143      0.0307
    139  CG        21.4070    7.9660   45.3490 C.3   143  ARG143      0.0489
    140  CD        21.6850    6.7190   44.5570 C.3   143  ARG143      0.2205
    141  NE        20.6120    6.3920   43.6080 N.pl3 143  ARG143     -0.0865
    142  CZ        20.6100    5.3130   42.8160 C.cat 143  ARG143      0.5346
    143  NH1       21.6130    4.4470   42.8540 N.pl3 143  ARG143      0.1354
    144  NH2       19.6100    5.0950   41.9860 N.pl3 143  ARG143      0.1354
@<TRIPOS>BOND
     1   118   117    1
     2   117   115   ar
     3   117   116   ar
     4   115   113   ar
     5     1     2    1
     6   116   114   ar
     7   113   112   ar
     8   133   131   am
     9     2     5    1
    10     2     3    1
    11   114   112   ar
    12   112   111    1
    13   124   123    1
    14   111   108    1
    15   131   132    2
    16   131   130    1
    17   123   120    1
    18     3     4    2
    19     3     6   am
    20   129   130    1
    21   129   126    1
    22   120   121    1
    23   120   119    1
    24     6     7    1
    25   125   126    1
    26   121   122    2
    27   108   109    1
    28   108   107    1
    29   126   127    1
    30    18    17    2
    31   109   110    2
    32    19    17   am
    33    12    13    1
    34     7     8    1
    35     7    10    1
    36    17    16    1
    37     8     9    2
    38    10    11    1
    39   127   128    2
    40    13    16    1
    41    13    14    1
    42    40    39    1
    43    14    15    2
    44    31    32    1
    45    32    35    1
    46    32    33    1
    47   144   142    1
    48    35    36    1
    49    39    41    1
    50    39    38    2
    51    36    37    1
    52    37    38    1
    53   142   143    1
    54   142   141    2
    55   101   100    2
    56    33    34    2
    57   103   102    1
    58   103   104    1
    59    20    21    1
    60   141   140    1
    61    29    28    1
    62   100    99    1
    63    30    28    1
    64   106   104   ar
    65    28    27    2
    66   102    99    1
    67   104   105   ar
    68   140   139    1
    69    99    98    1
    70    27    26    1
    71    21    24    1
    72    21    22    1
    73    25    24    1
    74    25    26    1
    75   139   138    1
    76    49    47   ar
    77    98    92   am
    78    96    95    1
    79    48    47   ar
    80    22    23    2
    81   134   135    1
    82    47    46    1
    83    42    43    1
    84   138   135    1
    85    95    97    1
    86    95    94    1
    87    57    55   ar
    88    43    46    1
    89    43    44    1
    90    92    91    1
    91    92    93    2
    92   135   136    1
    93    56    55   ar
    94    91    94    1
    95    91    90    1
    96    55    54    1
    97    82    81    2
    98    44    50   am
    99    44    45    2
   100    50    51    1
   101    71    69   ar
   102    71    73   ar
   103   137   136    2
   104    69    68   ar
   105    81    90   am
   106    81    80    1
   107    74    73    1
   108    54    51    1
   109    73    72   ar
   110    51    52    1
   111    68    67    1
   112    68    70   ar
   113    67    64    1
   114    84    83    1
   115    84    85    1
   116    83    80    1
   117    72    70   ar
   118    80    79    1
   119    89    87    1
   120    86    85    1
   121    86    87    2
   122    53    52    2
   123    87    88    1
   124    64    63    1
   125    64    65    1
   126    63    60   am
   127    62    59    1
   128    66    65    2
   129    60    61    2
   130    60    59    1
   131    58    59    1
   132    75    76    1
   133    76    77    1
   134    77    78    2
