@<TRIPOS>MOLECULE
tmp/2c8mC00.pdb
 157 146 0 0 0
SMALL
GASTEIGER

@<TRIPOS>ATOM
      1  N        -18.2140    5.2580  -39.3980 N.3    18  LEU18      -0.1245
      2  CA       -18.2710    4.4030  -38.2080 C.3    18  LEU18       0.1561
      3  C        -19.1600    5.0070  -37.1210 C.2    18  LEU18       0.2260
      4  O        -19.8540    4.2830  -36.4060 O.2    18  LEU18      -0.2867
      5  CB       -16.8620    4.1100  -37.6770 C.3    18  LEU18       0.0270
      6  CG       -15.9440    3.4190  -38.6910 C.3    18  LEU18       0.0019
      7  CD1      -14.5840    3.1370  -38.0880 C.3    18  LEU18       0.0001
      8  CD2      -16.5810    2.1440  -39.2090 C.3    18  LEU18       0.0001
      9  N        -22.7130    4.0170  -37.6740 N.3    21  ASP21      -0.1239
     10  CA       -23.0420    2.6460  -37.3030 C.3    21  ASP21       0.1674
     11  C        -23.4880    2.5610  -35.8470 C.2    21  ASP21       0.2266
     12  O        -24.4900    1.9190  -35.5320 O.2    21  ASP21      -0.2867
     13  CB       -21.8430    1.7240  -37.5400 C.3    21  ASP21       0.1410
     14  CG       -22.0740    0.7510  -38.6790 C.2    21  ASP21       0.3668
     15  OD1      -23.0660    0.9220  -39.4180 O.co2  21  ASP21      -0.2456
     16  OD2      -21.3170   -0.2150  -38.9120 O.co2  21  ASP21      -0.2456
     17  N        -22.3890    0.3620  -47.0510 N.3    39  TYR39      -0.1241
     18  CA       -21.4860    1.4890  -47.1120 C.3    39  TYR39       0.1605
     19  C        -20.0920    1.0630  -47.5230 C.2    39  TYR39       0.2264
     20  O        -19.7370   -0.1170  -47.4350 O.2    39  TYR39      -0.2867
     21  CB       -21.4430    2.2340  -45.7730 C.3    39  TYR39       0.0534
     22  CG       -21.2090    1.3760  -44.5360 C.ar   39  TYR39      -0.0201
     23  CD1      -20.0230    1.4600  -43.8230 C.ar   39  TYR39      -0.0009
     24  CD2      -22.1950    0.5230  -44.0570 C.ar   39  TYR39      -0.0009
     25  CE1      -19.8190    0.7110  -42.6740 C.ar   39  TYR39       0.0417
     26  CE2      -21.9970   -0.2360  -42.9080 C.ar   39  TYR39       0.0417
     27  CZ       -20.8060   -0.1450  -42.2290 C.ar   39  TYR39       0.1957
     28  OH       -20.6130   -0.8960  -41.0790 O.3    39  TYR39      -0.2866
     29  N        -15.7410    2.5200  -47.6560 N.3    41  HIS41      -0.1241
     30  CA       -14.7290    3.4720  -47.2350 C.3    41  HIS41       0.1621
     31  C        -13.5690    3.4820  -48.2260 C.2    41  HIS41       0.2264
     32  O        -13.1770    2.4350  -48.7570 O.2    41  HIS41      -0.2867
     33  CB       -14.2020    3.1170  -45.8350 C.3    41  HIS41       0.0745
     34  CG       -15.2790    2.9260  -44.8070 C.ar   41  HIS41       0.0817
     35  ND1      -15.3910    1.7780  -44.0540 N.ar   41  HIS41      -0.2268
     36  CD2      -16.2860    3.7380  -44.4040 C.ar   41  HIS41       0.1154
     37  CE1      -16.4230    1.8880  -43.2360 C.ar   41  HIS41       0.1986
     38  NE2      -16.9850    3.0680  -43.4290 N.ar   41  HIS41      -0.2212
     39  N         -9.5510   -0.4310  -40.2020 N.3    46  ILE46      -0.1245
     40  CA       -10.5190   -0.2790  -39.1380 C.3    46  ILE46       0.1561
     41  C        -10.1390   -1.2620  -38.0320 C.2    46  ILE46       0.2260
     42  O        -10.0710   -2.4650  -38.2580 O.2    46  ILE46      -0.2867
     43  CB       -11.9680   -0.5130  -39.6600 C.3    46  ILE46       0.0252
     44  CG1      -12.3640    0.5660  -40.6920 C.3    46  ILE46       0.0019
     45  CG2      -12.9600   -0.4450  -38.5270 C.3    46  ILE46       0.0019
     46  CD1      -11.8420    0.3110  -42.0560 C.3    46  ILE46       0.0001
     47  N        -13.5880    1.2460  -34.7520 N.3    72  ARG72      -0.1245
     48  CA       -15.0210    0.9910  -34.8460 C.3    72  ARG72       0.1563
     49  C        -15.6140    0.6670  -33.4790 C.2    72  ARG72       0.2260
     50  O        -14.8880    0.3580  -32.5340 O.2    72  ARG72      -0.2867
     51  CB       -15.2990   -0.1510  -35.8240 C.3    72  ARG72       0.0307
     52  CG       -14.8690   -1.5190  -35.3190 C.3    72  ARG72       0.0489
     53  CD       -15.2970   -2.6730  -36.2120 C.3    72  ARG72       0.2205
     54  NE       -14.7850   -3.9540  -35.7330 N.pl3  72  ARG72      -0.0865
     55  CZ       -13.6240   -4.4770  -36.1020 C.cat  72  ARG72       0.5346
     56  NH1      -12.8460   -3.8310  -36.9600 N.pl3  72  ARG72       0.1354
     57  NH2      -13.2380   -5.6490  -35.6160 N.pl3  72  ARG72       0.1354
     58  N        -13.3490   -7.2930  -31.9340 N.3    76  GLY76      -0.1210
     59  CA       -12.8520   -8.0220  -33.0890 C.3    76  GLY76       0.1956
     60  C        -11.5350   -7.4550  -33.5760 C.2    76  GLY76       0.2612
     61  O        -10.9520   -6.5640  -32.9450 O.2    76  GLY76      -0.2717
     62  N        -11.0710   -7.9600  -34.7160 N.am   77  GLY77      -0.1956
     63  CA        -9.7450   -7.6390  -35.2010 C.3    77  GLY77       0.1869
     64  C         -9.7270   -6.5610  -36.2790 C.2    77  GLY77       0.2309
     65  O        -10.7300   -5.8960  -36.5280 O.2    77  GLY77      -0.2863
     66  N         -9.0060   -4.8250  -40.0860 N.3    79  VAL79      -0.1245
     67  CA        -9.2880   -5.1390  -41.4590 C.3    79  VAL79       0.1561
     68  C         -8.9570   -3.9500  -42.3270 C.2    79  VAL79       0.2260
     69  O         -9.0050   -2.8030  -41.8820 O.2    79  VAL79      -0.2867
     70  CB       -10.7710   -5.5060  -41.6580 C.3    79  VAL79       0.0252
     71  CG1      -11.1020   -6.7920  -40.9190 C.3    79  VAL79       0.0019
     72  CG2      -11.6700   -4.3620  -41.2100 C.3    79  VAL79       0.0019
     73  N         -9.9240   -1.6740  -45.6210 N.3    81  HIS81      -0.1241
     74  CA       -11.0040   -1.3150  -46.5210 C.3    81  HIS81       0.1621
     75  C        -10.4760   -0.4500  -47.6520 C.2    81  HIS81       0.2264
     76  O         -9.6190    0.4120  -47.4440 O.2    81  HIS81      -0.2867
     77  CB       -12.0900   -0.5220  -45.7870 C.3    81  HIS81       0.0745
     78  CG       -12.8820   -1.3340  -44.8100 C.ar   81  HIS81       0.0817
     79  ND1      -14.0000   -0.8430  -44.1690 N.ar   81  HIS81      -0.2268
     80  CD2      -12.7340   -2.6090  -44.3830 C.ar   81  HIS81       0.1154
     81  CE1      -14.4930   -1.7740  -43.3710 C.ar   81  HIS81       0.1986
     82  NE2      -13.7440   -2.8560  -43.4820 N.ar   81  HIS81      -0.2212
     83  N        -19.0520   -3.0120  -47.1920 N.3    87  ASN87      -0.1240
     84  CA       -19.5380   -3.1790  -45.8280 C.3    87  ASN87       0.1653
     85  C        -21.0570   -3.0820  -45.7410 C.2    87  ASN87       0.2266
     86  O        -21.6960   -2.4390  -46.5740 O.2    87  ASN87      -0.2867
     87  CB       -18.8920   -2.1500  -44.8980 C.3    87  ASN87       0.1155
     88  CG       -17.4040   -1.9930  -45.1470 C.2    87  ASN87       0.2627
     89  OD1      -16.6190   -2.9030  -44.8810 O.2    87  ASN87      -0.2716
     90  ND2      -17.0100   -0.8340  -45.6610 N.am   87  ASN87      -0.0877
     91  N        -12.6510  -18.5820  -38.6040 N.3   135  LYS135     -0.1245
     92  CA       -13.4940  -18.3680  -37.4340 C.3   135  LYS135      0.1561
     93  C        -14.9720  -18.4910  -37.7900 C.2   135  LYS135      0.2260
     94  O        -15.3460  -18.4300  -38.9610 O.2   135  LYS135     -0.2867
     95  CB       -13.2150  -16.9960  -36.8170 C.3   135  LYS135      0.0271
     96  CG       -11.8140  -16.8460  -36.2450 C.3   135  LYS135      0.0035
     97  CD       -11.5250  -15.4040  -35.8640 C.3   135  LYS135      0.0206
     98  CE       -11.7740  -14.4630  -37.0320 C.3   135  LYS135      0.1093
     99  NZ       -10.6760  -14.5230  -38.0360 N.3   135  LYS135     -0.1314
    100  N        -17.0970  -16.3580  -37.3850 N.3   137  THR137     -0.1203
    101  CA       -17.5630  -15.0430  -37.8300 C.3   137  THR137      0.1994
    102  C        -17.0620  -14.7520  -39.2390 C.2   137  THR137      0.2617
    103  O        -17.4480  -13.7550  -39.8510 O.2   137  THR137     -0.2717
    104  CB       -17.0830  -13.9430  -36.8770 C.3   137  THR137      0.1784
    105  OG1      -15.6640  -14.0450  -36.6850 O.3   137  THR137     -0.2211
    106  CG2      -17.6450  -14.1700  -35.4900 C.3   137  THR137      0.0376
    107  N        -16.1820  -15.6090  -39.7390 N.am  138  ASP138     -0.1973
    108  CA       -15.6920  -15.4790  -41.1230 C.3   138  ASP138      0.1709
    109  C        -16.5990  -16.2470  -42.0740 C.2   138  ASP138      0.2293
    110  O        -17.1780  -17.2650  -41.7170 O.2   138  ASP138     -0.2864
    111  CB       -14.2820  -16.0660  -41.2690 C.3   138  ASP138      0.1436
    112  CG       -13.2300  -15.3470  -40.4320 C.2   138  ASP138      0.3671
    113  OD1      -13.3750  -14.1300  -40.1660 O.co2 138  ASP138     -0.2456
    114  OD2      -12.1870  -15.9280  -40.0340 O.co2 138  ASP138     -0.2456
    115  N        -10.8430  -16.9110  -47.1320 N.3   145  LYS145     -0.1245
    116  CA       -11.6990  -15.9280  -46.4660 C.3   145  LYS145      0.1561
    117  C        -12.1010  -14.8230  -47.4450 C.2   145  LYS145      0.2260
    118  O        -11.2430  -14.2250  -48.1070 O.2   145  LYS145     -0.2867
    119  CB       -10.9970  -15.3210  -45.2260 C.3   145  LYS145      0.0271
    120  CG       -11.8070  -14.1950  -44.5150 C.3   145  LYS145      0.0035
    121  CD       -11.2760  -13.8350  -43.1130 C.3   145  LYS145      0.0206
    122  CE       -12.0420  -12.6170  -42.5400 C.3   145  LYS145      0.1093
    123  NZ       -11.7540  -12.3160  -41.1000 N.3   145  LYS145     -0.1314
    124  N        -15.4730  -10.8930  -43.2990 N.3   148  GLY148     -0.1210
    125  CA       -15.4140  -10.9940  -41.8410 C.3   148  GLY148      0.1956
    126  C        -16.5050  -10.1660  -41.1810 C.2   148  GLY148      0.2612
    127  O        -17.0650   -9.2620  -41.7930 O.2   148  GLY148     -0.2717
    128  N        -16.8050  -10.4490  -39.9210 N.am  149  ALA149     -0.1965
    129  CA       -17.8960   -9.7360  -39.2670 C.3   149  ALA149      0.1728
    130  C        -17.6710   -9.5460  -37.7740 C.2   149  ALA149      0.2616
    131  O        -16.8550  -10.2290  -37.1550 O.2   149  ALA149     -0.2715
    132  CB       -19.2170  -10.4500  -39.5210 C.3   149  ALA149      0.0334
    133  N        -18.3840   -8.5870  -37.2010 N.am  150  ALA150     -0.1977
    134  CA       -18.3400   -8.3960  -35.7540 C.3   150  ALA150      0.1597
    135  C        -19.7160   -7.9360  -35.3280 C.2   150  ALA150      0.2287
    136  O        -20.5520   -7.6220  -36.1500 O.2   150  ALA150     -0.2864
    137  CB       -17.2700   -7.3740  -35.3820 C.3   150  ALA150      0.0319
    138  N        -22.2720   -6.3430  -38.2140 N.3   161  HIS161     -0.1226
    139  CA       -21.7060   -5.6250  -39.3500 C.3   161  HIS161      0.1752
    140  C        -20.4330   -6.2990  -39.8500 C.2   161  HIS161      0.2596
    141  O        -19.7670   -7.0180  -39.1060 O.2   161  HIS161     -0.2718
    142  CB       -21.4190   -4.1700  -38.9750 C.3   161  HIS161      0.0759
    143  CG       -20.3650   -4.0140  -37.9230 C.ar  161  HIS161      0.0818
    144  ND1      -20.0970   -2.8090  -37.3110 N.ar  161  HIS161     -0.2268
    145  CD2      -19.5130   -4.9120  -37.3740 C.ar  161  HIS161      0.1154
    146  CE1      -19.1250   -2.9710  -36.4310 C.ar  161  HIS161      0.1986
    147  NE2      -18.7530   -4.2380  -36.4490 N.ar  161  HIS161     -0.2212
    148  N        -20.1020   -6.0620  -41.1150 N.am  162  ALA162     -0.1966
    149  CA       -19.5090   -7.0930  -41.9580 C.3   162  ALA162      0.1728
    150  C        -18.8240   -6.4840  -43.1760 C.2   162  ALA162      0.2616
    151  O        -19.3790   -5.6090  -43.8400 O.2   162  ALA162     -0.2715
    152  CB       -20.5670   -8.0970  -42.3900 C.3   162  ALA162      0.0334
    153  N        -17.6130   -6.9510  -43.4630 N.am  163  ALA163     -0.1977
    154  CA       -16.7940   -6.3580  -44.5000 C.3   163  ALA163      0.1597
    155  C        -16.4730   -7.4400  -45.5230 C.2   163  ALA163      0.2287
    156  O        -15.7810   -8.4100  -45.2060 O.2   163  ALA163     -0.2864
    157  CB       -15.5130   -5.8020  -43.8940 C.3   163  ALA163      0.0319
@<TRIPOS>BOND
     1    32    31    2
     2    31    30    1
     3   118   117    2
     4    29    30    1
     5    75    76    2
     6    75    74    1
     7    19    20    2
     8    19    18    1
     9   117   116    1
    10    30    33    1
    11    83    84    1
    12   115   116    1
    13    18    17    1
    14    18    21    1
    15    86    85    2
    16    74    77    1
    17    74    73    1
    18   116   119    1
    19    33    34    1
    20    84    85    1
    21    84    87    1
    22    77    78    1
    23    21    22    1
    24    90    88   am
    25   155   156    2
    26   155   154    1
    27   119   120    1
    28    88    87    1
    29    88    89    2
    30    78    80   ar
    31    78    79   ar
    32    34    36   ar
    33    34    35   ar
    34    22    24   ar
    35    22    23   ar
    36   120   121    1
    37   154   157    1
    38   154   153    1
    39    36    38   ar
    40    80    82   ar
    41    79    81   ar
    42    24    26   ar
    43    35    37   ar
    44   151   150    2
    45    23    25   ar
    46    82    81   ar
    47   153   150   am
    48    38    37   ar
    49   124   125    1
    50   150   149    1
    51   121   122    1
    52    26    27   ar
    53    25    27   ar
    54   122   123    1
    55   152   149    1
    56    68    69    2
    57    68    67    1
    58    27    28    1
    59   109   110    2
    60   109   108    1
    61    46    44    1
    62   149   148    1
    63   125   126    1
    64   127   126    2
    65    70    67    1
    66    70    72    1
    67    70    71    1
    68    67    66    1
    69   111   108    1
    70   111   112    1
    71   126   128   am
    72   108   107    1
    73   148   140   am
    74    44    43    1
    75   112   113   ar
    76   112   114   ar
    77    39    40    1
    78   128   129    1
    79   103   102    2
    80   140   139    1
    81   140   141    2
    82   107   102   am
    83    43    40    1
    84    43    45    1
    85   132   129    1
    86    15    14   ar
    87     1     2    1
    88   139   142    1
    89   139   138    1
    90   129   130    1
    91   102   101    1
    92     8     6    1
    93    40    41    1
    94   142   143    1
    95    94    93    2
    96    16    14   ar
    97     6     7    1
    98     6     5    1
    99    14    13    1
   100    91    92    1
   101    42    41    2
   102     2     5    1
   103     2     3    1
   104    99    98    1
   105   143   145   ar
   106   143   144   ar
   107   101   100    1
   108   101   104    1
   109    93    92    1
   110   130   133   am
   111   130   131    2
   112     9    10    1
   113    13    10    1
   114    92    95    1
   115   145   147   ar
   116   144   146   ar
   117    10    11    1
   118   133   134    1
   119     3     4    2
   120    98    97    1
   121    56    55    1
   122   104   105    1
   123   104   106    1
   124    95    96    1
   125    65    64    2
   126   147   146   ar
   127    64    63    1
   128    96    97    1
   129    53    54    1
   130    53    52    1
   131   136   135    2
   132    55    54    2
   133    55    57    1
   134    11    12    2
   135    51    52    1
   136    51    48    1
   137   134   137    1
   138   134   135    1
   139    63    62    1
   140    48    47    1
   141    48    49    1
   142    62    60   am
   143    60    59    1
   144    60    61    2
   145    49    50    2
   146    59    58    1
