@<TRIPOS>MOLECULE
tmp/2c8nA00.pdb
 163 157 0 0 0
SMALL
GASTEIGER

@<TRIPOS>ATOM
      1  N         21.6610   27.5030  -37.5160 N.3    24  PHE24      -0.1241
      2  CA        22.0430   26.8930  -38.7760 C.3    24  PHE24       0.1605
      3  C         21.9950   25.3710  -38.6290 C.2    24  PHE24       0.2264
      4  O         22.6120   24.8110  -37.7210 O.2    24  PHE24      -0.2867
      5  CB        23.4480   27.4290  -39.1220 C.3    24  PHE24       0.0534
      6  CG        24.1600   26.7160  -40.2430 C.ar   24  PHE24      -0.0203
      7  CD1       23.4830   26.2210  -41.3490 C.ar   24  PHE24      -0.0042
      8  CD2       25.5430   26.6090  -40.2110 C.ar   24  PHE24      -0.0042
      9  CE1       24.1780   25.5830  -42.3800 C.ar   24  PHE24      -0.0003
     10  CE2       26.2390   25.9800  -41.2310 C.ar   24  PHE24      -0.0003
     11  CZ        25.5580   25.4630  -42.3180 C.ar   24  PHE24      -0.0000
     12  N         22.6910   21.9730  -40.8180 N.3    26  GLU26      -0.1245
     13  CA        23.2130   21.3640  -42.0330 C.3    26  GLU26       0.1567
     14  C         22.9040   19.8720  -42.0430 C.2    26  GLU26       0.2260
     15  O         22.6960   19.2610  -40.9900 O.2    26  GLU26      -0.2867
     16  CB        24.7220   21.5950  -42.1240 C.3    26  GLU26       0.0388
     17  CG        25.3770   21.0960  -43.4010 C.3    26  GLU26       0.1160
     18  CD        26.8060   21.5910  -43.5710 C.2    26  GLU26       0.3649
     19  OE1       27.3110   22.2850  -42.6610 O.co2  26  GLU26      -0.2457
     20  OE2       27.4250   21.2930  -44.6210 O.co2  26  GLU26      -0.2457
     21  N         24.6810   17.4190  -41.8900 N.3    28  LEU28      -0.1245
     22  CA        26.0190   17.0480  -41.4810 C.3    28  LEU28       0.1561
     23  C         25.9180   16.1410  -40.2670 C.2    28  LEU28       0.2260
     24  O         25.0630   16.3500  -39.3980 O.2    28  LEU28      -0.2867
     25  CB        26.7900   18.3110  -41.1060 C.3    28  LEU28       0.0270
     26  CG        28.3160   18.4040  -41.1430 C.3    28  LEU28       0.0019
     27  CD1       28.7230   19.8420  -40.8530 C.3    28  LEU28       0.0001
     28  CD2       28.9940   17.4840  -40.1650 C.3    28  LEU28       0.0001
     29  N         26.0830   25.7380  -45.9050 N.3    70  GLY70      -0.1210
     30  CA        27.0490   24.7100  -45.5230 C.3    70  GLY70       0.1956
     31  C         27.5640   23.9910  -46.7490 C.2    70  GLY70       0.2611
     32  O         26.9360   24.0440  -47.8040 O.2    70  GLY70      -0.2717
     33  N         28.7000   23.3140  -46.6170 N.am   71  ASN71      -0.1974
     34  CA        29.2850   22.6030  -47.7450 C.3    71  ASN71       0.1688
     35  C         28.3140   21.6450  -48.4430 C.2    71  ASN71       0.2292
     36  O         28.3760   21.4650  -49.6620 O.2    71  ASN71      -0.2864
     37  CB        30.5740   21.9020  -47.3210 C.3    71  ASN71       0.1181
     38  CG        31.6650   22.8850  -46.9420 C.2    71  ASN71       0.2629
     39  OD1       32.4280   22.6480  -46.0110 O.2    71  ASN71      -0.2716
     40  ND2       31.7390   23.9990  -47.6540 N.am   71  ASN71      -0.0877
     41  N         30.8350   15.6900  -46.8200 N.3    96  TRP96      -0.1241
     42  CA        31.2020   15.0060  -45.5890 C.3    96  TRP96       0.1605
     43  C         31.4150   13.5110  -45.7050 C.2    96  TRP96       0.2264
     44  O         31.5230   12.8290  -44.6870 O.2    96  TRP96      -0.2867
     45  CB        30.1920   15.3410  -44.4910 C.3    96  TRP96       0.0550
     46  CG        30.0750   16.8090  -44.3210 C.ar   96  TRP96       0.0003
     47  CD1       29.0310   17.5920  -44.6920 C.ar   96  TRP96       0.0946
     48  CD2       31.0690   17.6870  -43.7830 C.ar   96  TRP96       0.0152
     49  NE1       29.2960   18.9070  -44.3990 N.ar   96  TRP96      -0.2442
     50  CE2       30.5440   18.9930  -43.8430 C.ar   96  TRP96       0.0810
     51  CE3       32.3530   17.4940  -43.2480 C.ar   96  TRP96       0.0012
     52  CZ2       31.2520   20.1060  -43.3860 C.ar   96  TRP96       0.0191
     53  CZ3       33.0600   18.6000  -42.7920 C.ar   96  TRP96       0.0001
     54  CH2       32.5040   19.8900  -42.8620 C.ar   96  TRP96       0.0015
     55  N         26.8310   28.4570  -51.0450 N.3   171  ASN171     -0.1225
     56  CA        27.6430   28.4860  -49.8290 C.3   171  ASN171      0.1785
     57  C         29.0380   29.0040  -50.1990 C.2   171  ASN171      0.2597
     58  O         29.3810   29.0500  -51.3850 O.2   171  ASN171     -0.2718
     59  CB        27.7110   27.0860  -49.2100 C.3   171  ASN171      0.1169
     60  CG        28.4400   27.0580  -47.8700 C.2   171  ASN171      0.2627
     61  OD1       27.9910   27.6470  -46.8740 O.2   171  ASN171     -0.2716
     62  ND2       29.5680   26.3520  -47.8380 N.am  171  ASN171     -0.0877
     63  N         29.8290   29.4150  -49.2060 N.am  172  ALA172     -0.1979
     64  CA        31.1680   29.9590  -49.4540 C.3   172  ALA172      0.1597
     65  C         31.9330   29.0530  -50.4210 C.2   172  ALA172      0.2287
     66  O         32.1860   27.8870  -50.1100 O.2   172  ALA172     -0.2864
     67  CB        31.9270   30.1250  -48.1450 C.3   172  ALA172      0.0319
     68  N         38.4950   23.0250  -50.7080 N.3   177  TRP177     -0.1241
     69  CA        37.8270   21.8570  -50.1450 C.3   177  TRP177      0.1605
     70  C         36.3710   21.7020  -50.6150 C.2   177  TRP177      0.2264
     71  O         35.7050   20.7430  -50.2270 O.2   177  TRP177     -0.2867
     72  CB        37.8560   21.9290  -48.6080 C.3   177  TRP177      0.0550
     73  CG        37.0370   23.0860  -48.0640 C.ar  177  TRP177      0.0003
     74  CD1       35.6780   23.1220  -47.8850 C.ar  177  TRP177      0.0946
     75  CD2       37.5280   24.3740  -47.6580 C.ar  177  TRP177      0.0152
     76  NE1       35.2940   24.3490  -47.3850 N.ar  177  TRP177     -0.2442
     77  CE2       36.4070   25.1370  -47.2340 C.ar  177  TRP177      0.0810
     78  CE3       38.8090   24.9570  -47.5990 C.ar  177  TRP177      0.0012
     79  CZ2       36.5260   26.4580  -46.7600 C.ar  177  TRP177      0.0191
     80  CZ3       38.9290   26.2750  -47.1220 C.ar  177  TRP177      0.0001
     81  CH2       37.7890   27.0070  -46.7130 C.ar  177  TRP177      0.0015
     82  N         35.0870   32.2820  -46.9650 N.3   213  SER213     -0.1202
     83  CA        34.8890   31.2070  -45.9920 C.3   213  SER213      0.2020
     84  C         35.5700   31.5200  -44.6590 C.2   213  SER213      0.2619
     85  O         35.1230   31.0620  -43.6030 O.2   213  SER213     -0.2717
     86  CB        35.3200   29.8430  -46.5510 C.3   213  SER213      0.2103
     87  OG        36.5360   29.9340  -47.2700 O.3   213  SER213     -0.2182
     88  N         36.6440   32.3020  -44.7140 N.am  214  SER214     -0.1951
     89  CA        37.2630   32.8570  -43.5150 C.3   214  SER214      0.1924
     90  C         38.0180   34.1070  -43.9190 C.2   214  SER214      0.2314
     91  O         38.2410   34.3270  -45.1100 O.2   214  SER214     -0.2863
     92  CB        38.2090   31.8490  -42.8540 C.3   214  SER214      0.2116
     93  OG        39.5020   31.8940  -43.4250 O.3   214  SER214     -0.2180
     94  N         31.9350   34.4150  -41.9290 N.3   241  HIS241     -0.1241
     95  CA        32.1020   33.2220  -41.1060 C.3   241  HIS241      0.1621
     96  C         33.3250   33.3520  -40.2210 C.2   241  HIS241      0.2264
     97  O         34.4120   33.7050  -40.6890 O.2   241  HIS241     -0.2867
     98  CB        32.2590   31.9900  -41.9750 C.3   241  HIS241      0.0745
     99  CG        31.1670   31.8060  -42.9780 C.ar  241  HIS241      0.0817
    100  ND1       30.8910   30.5820  -43.5520 N.ar  241  HIS241     -0.2268
    101  CD2       30.2920   32.6870  -43.5220 C.ar  241  HIS241      0.1154
    102  CE1       29.8900   30.7200  -44.4050 C.ar  241  HIS241      0.1986
    103  NE2       29.5090   31.9870  -44.4050 N.ar  241  HIS241     -0.2212
    104  N         35.2860   31.1220  -36.9260 N.3   243  TYR243     -0.1241
    105  CA        35.4030   30.1390  -35.8500 C.3   243  TYR243      0.1605
    106  C         36.6540   30.3810  -35.0160 C.2   243  TYR243      0.2264
    107  O         37.6500   30.9090  -35.5140 O.2   243  TYR243     -0.2867
    108  CB        35.4180   28.7220  -36.4000 C.3   243  TYR243      0.0534
    109  CG        34.1500   28.3170  -37.1000 C.ar  243  TYR243     -0.0201
    110  CD1       33.0320   27.9070  -36.3780 C.ar  243  TYR243     -0.0009
    111  CD2       34.0720   28.3320  -38.4910 C.ar  243  TYR243     -0.0009
    112  CE1       31.8680   27.5200  -37.0220 C.ar  243  TYR243      0.0417
    113  CE2       32.9120   27.9440  -39.1510 C.ar  243  TYR243      0.0417
    114  CZ        31.8180   27.5360  -38.4110 C.ar  243  TYR243      0.1957
    115  OH        30.6740   27.1560  -39.0640 O.3   243  TYR243     -0.2866
    116  N         27.6470   32.0860  -39.9680 N.3   291  GLU291     -0.1245
    117  CA        28.3900   31.0120  -39.3100 C.3   291  GLU291      0.1567
    118  C         29.3430   31.6040  -38.2960 C.2   291  GLU291      0.2260
    119  O         30.3530   32.2130  -38.6580 O.2   291  GLU291     -0.2867
    120  CB        29.1860   30.1680  -40.3000 C.3   291  GLU291      0.0388
    121  CG        28.4200   29.0150  -40.8980 C.3   291  GLU291      0.1160
    122  CD        29.1830   28.3460  -42.0090 C.2   291  GLU291      0.3649
    123  OE1       30.3490   27.9800  -41.7670 O.co2 291  GLU291     -0.2457
    124  OE2       28.6300   28.1890  -43.1180 O.co2 291  GLU291     -0.2457
    125  N         35.0010   26.3400  -32.3500 N.3   295  TRP295     -0.1241
    126  CA        35.0620   25.0370  -32.9860 C.3   295  TRP295      0.1605
    127  C         36.5030   24.5810  -33.1060 C.2   295  TRP295      0.2264
    128  O         37.2510   25.0940  -33.9380 O.2   295  TRP295     -0.2867
    129  CB        34.3710   25.0740  -34.3530 C.3   295  TRP295      0.0550
    130  CG        34.6660   23.9090  -35.2500 C.ar  295  TRP295      0.0003
    131  CD1       35.0630   22.6520  -34.8740 C.ar  295  TRP295      0.0946
    132  CD2       34.5530   23.8820  -36.6770 C.ar  295  TRP295      0.0152
    133  NE1       35.2220   21.8570  -35.9800 N.ar  295  TRP295     -0.2442
    134  CE2       34.9100   22.5820  -37.1000 C.ar  295  TRP295      0.0810
    135  CE3       34.1880   24.8310  -37.6410 C.ar  295  TRP295      0.0012
    136  CZ2       34.9160   22.2060  -38.4470 C.ar  295  TRP295      0.0191
    137  CZ3       34.1980   24.4570  -38.9830 C.ar  295  TRP295      0.0001
    138  CH2       34.5570   23.1550  -39.3700 C.ar  295  TRP295      0.0015
    139  N         32.0580   16.5520  -36.0100 N.3   318  LEU318     -0.1245
    140  CA        32.0250   17.9190  -35.4660 C.3   318  LEU318      0.1561
    141  C         31.3460   18.0390  -34.0970 C.2   318  LEU318      0.2260
    142  O         30.6390   19.0060  -33.8100 O.2   318  LEU318     -0.2867
    143  CB        31.3970   18.8990  -36.4750 C.3   318  LEU318      0.0270
    144  CG        32.2470   19.5130  -37.5910 C.3   318  LEU318      0.0019
    145  CD1       32.5670   18.5070  -38.6860 C.3   318  LEU318      0.0001
    146  CD2       31.5370   20.7220  -38.1850 C.3   318  LEU318      0.0001
    147  N         26.6750   25.0910  -35.1290 N.3   351  GLN351     -0.1245
    148  CA        25.3260   24.8700  -35.6580 C.3   351  GLN351      0.1566
    149  C         24.3640   24.5940  -34.4940 C.2   351  GLN351      0.2260
    150  O         24.7600   24.6800  -33.3350 O.2   351  GLN351     -0.2867
    151  CB        25.3240   23.7110  -36.6580 C.3   351  GLN351      0.0367
    152  CG        26.2430   23.9210  -37.8530 C.3   351  GLN351      0.0905
    153  CD        26.0180   22.9260  -38.9680 C.2   351  GLN351      0.2608
    154  OE1       25.0820   22.1270  -38.9350 O.2   351  GLN351     -0.2717
    155  NE2       26.8760   22.9770  -39.9730 N.am  351  GLN351     -0.0878
    156  N         28.8120   20.8290  -33.7580 N.3   356  ILE356     -0.1245
    157  CA        29.2650   22.0450  -33.0400 C.3   356  ILE356      0.1561
    158  C         28.1180   22.8960  -32.4540 C.2   356  ILE356      0.2260
    159  O         27.8680   24.0400  -32.8690 O.2   356  ILE356     -0.2867
    160  CB        30.3060   22.9060  -33.8400 C.3   356  ILE356      0.0252
    161  CG1       29.8830   23.1230  -35.2980 C.3   356  ILE356      0.0019
    162  CG2       31.6820   22.2790  -33.7470 C.3   356  ILE356      0.0019
    163  CD1       30.7690   24.0960  -36.0660 C.3   356  ILE356      0.0001
@<TRIPOS>BOND
     1    58    57    2
     2    55    56    1
     3    68    69    1
     4    70    71    2
     5    70    69    1
     6    65    66    2
     7    65    64    1
     8    57    56    1
     9    57    63   am
    10    69    72    1
    11    56    59    1
    12    36    35    2
    13    64    63    1
    14    64    67    1
    15    59    60    1
    16    72    73    1
    17    35    34    1
    18    73    74   ar
    19    73    75   ar
    20    74    76   ar
    21    60    62   am
    22    60    61    2
    23    32    31    2
    24    34    37    1
    25    34    33    1
    26    75    78   ar
    27    75    77   ar
    28    40    38   am
    29    78    80   ar
    30    76    77   ar
    31    37    38    1
    32    87    86    1
    33    77    79   ar
    34    80    81   ar
    35    82    83    1
    36    38    39    2
    37    41    42    1
    38    79    81   ar
    39    31    33   am
    40    31    30    1
    41    86    83    1
    42    83    84    1
    43    29    30    1
    44    43    42    1
    45    43    44    2
    46    42    45    1
    47    91    90    2
    48    88    84   am
    49    88    89    1
    50    47    49   ar
    51    47    46   ar
    52    84    85    2
    53    20    18   ar
    54    45    46    1
    55   102   103   ar
    56   102   100   ar
    57   103   101   ar
    58    49    50   ar
    59    46    48   ar
    60    90    89    1
    61    50    48   ar
    62    50    52   ar
    63    48    51   ar
    64    18    17    1
    65    18    19   ar
    66   100    99   ar
    67   101    99   ar
    68    89    92    1
    69    93    92    1
    70    17    16    1
    71    52    54   ar
    72    51    53   ar
    73   124   122   ar
    74    99    98    1
    75    54    53   ar
    76     9    11   ar
    77     9     7   ar
    78    11    10   ar
    79    16    13    1
    80    14    13    1
    81    14    15    2
    82    13    12    1
    83   122   123   ar
    84   122   121    1
    85    98    95    1
    86    94    95    1
    87    21    22    1
    88    22    25    1
    89    22    23    1
    90     7     6   ar
    91    10     8   ar
    92    26    25    1
    93    26    27    1
    94    26    28    1
    95    95    96    1
    96   121   120    1
    97    97    96    2
    98   120   117    1
    99    23    24    2
   100     6     8   ar
   101     6     5    1
   102   155   153   am
   103   116   117    1
   104   138   137   ar
   105   138   136   ar
   106   117   118    1
   107   113   111   ar
   108   113   114   ar
   109     5     2    1
   110   115   114    1
   111   137   135   ar
   112   153   154    2
   113   153   152    1
   114     2     3    1
   115     2     1    1
   116   145   144    1
   117   119   118    2
   118     3     4    2
   119   111   109   ar
   120   136   134   ar
   121   114   112   ar
   122   146   144    1
   123   152   151    1
   124   135   132   ar
   125   144   143    1
   126   109   108    1
   127   109   110   ar
   128   134   132   ar
   129   134   133   ar
   130   112   110   ar
   131   104   105    1
   132   132   130   ar
   133   151   148    1
   134   143   140    1
   135   108   105    1
   136   163   161    1
   137   139   140    1
   138   133   131   ar
   139   105   106    1
   140   148   147    1
   141   148   149    1
   142   107   106    2
   143   140   141    1
   144   161   160    1
   145   130   131   ar
   146   130   129    1
   147   149   150    2
   148   129   126    1
   149   141   142    2
   150   128   127    2
   151   160   162    1
   152   160   157    1
   153   156   157    1
   154   127   126    1
   155   157   158    1
   156   126   125    1
   157   159   158    2
