@<TRIPOS>MOLECULE
tmp/2c8sA00.pdb
 216 213 0 0 0
SMALL
GASTEIGER

@<TRIPOS>ATOM
      1  N         30.1010    3.2260   -9.8440 N.3    41  SER41      -0.1202
      2  CA        30.9470    2.5720   -8.8570 C.3    41  SER41       0.2020
      3  C         30.4350    1.2360   -8.3480 C.2    41  SER41       0.2619
      4  O         31.2260    0.4050   -7.9080 O.2    41  SER41      -0.2717
      5  CB        31.1560    3.4910   -7.6480 C.3    41  SER41       0.2103
      6  OG        31.7580    4.7160   -8.0240 O.3    41  SER41      -0.2182
      7  N         29.1220    1.0260   -8.4360 N.am   42  CYS42      -0.1969
      8  CA        28.5040   -0.1750   -7.8760 C.3    42  CYS42       0.1712
      9  C         27.5680   -0.9960   -8.7570 C.2    42  CYS42       0.2296
     10  O         27.5290   -2.2170   -8.6400 O.2    42  CYS42      -0.2864
     11  CB        27.6930    0.2020   -6.6220 C.3    42  CYS42       0.0983
     12  SG        28.3060    1.5670   -5.5880 S.3    42  CYS42      -0.0798
     13  N         27.6460   -1.9660  -11.7200 N.3    44  GLY44      -0.1210
     14  CA        28.2650   -2.9570  -12.5850 C.3    44  GLY44       0.1956
     15  C         28.2390   -4.3590  -12.0130 C.2    44  GLY44       0.2612
     16  O         28.2310   -5.3480  -12.7500 O.2    44  GLY44      -0.2717
     17  N         28.2110   -4.4560  -10.6900 N.am   45  CYS45      -0.1956
     18  CA        28.1770   -5.7530  -10.0420 C.3    45  CYS45       0.1843
     19  C         26.9180   -6.0020   -9.2450 C.2    45  CYS45       0.2625
     20  O         26.5150   -7.1460   -9.0790 O.2    45  CYS45      -0.2714
     21  CB        29.3520   -5.9070   -9.1090 C.3    45  CYS45       0.0997
     22  SG        30.8950   -5.8630   -9.9740 S.3    45  CYS45      -0.0797
     23  N         26.3000   -4.9380   -8.7500 N.am   46  HIS46      -0.1973
     24  CA        25.0980   -5.1070   -7.9450 C.3    46  HIS46       0.1656
     25  C         23.8040   -4.9000   -8.7030 C.2    46  HIS46       0.2291
     26  O         22.7200   -5.0990   -8.1520 O.2    46  HIS46      -0.2864
     27  CB        25.1510   -4.1770   -6.7360 C.3    46  HIS46       0.0771
     28  CG        26.1650   -4.5880   -5.7230 C.ar   46  HIS46       0.0820
     29  ND1       25.9650   -5.6460   -4.8630 N.ar   46  HIS46      -0.2267
     30  CD2       27.4090   -4.1210   -5.4660 C.ar   46  HIS46       0.1154
     31  CE1       27.0430   -5.8120   -4.1180 C.ar   46  HIS46       0.1986
     32  NE2       27.9350   -4.9000   -4.4650 N.ar   46  HIS46      -0.2212
     33  N         26.3350   -9.7580  -10.2110 N.3    54  LEU54      -0.1231
     34  CA        27.5160  -10.5320   -9.8620 C.3    54  LEU54       0.1693
     35  C         27.6120  -10.4870   -8.3420 C.2    54  LEU54       0.2593
     36  O         27.9620  -11.4750   -7.6950 O.2    54  LEU54      -0.2718
     37  CB        28.7590   -9.9190  -10.5090 C.3    54  LEU54       0.0284
     38  CG        28.7220   -9.9490  -12.0390 C.3    54  LEU54       0.0019
     39  CD1       29.8780   -9.1510  -12.5960 C.3    54  LEU54       0.0001
     40  CD2       28.7780  -11.3900  -12.5250 C.3    54  LEU54       0.0001
     41  N         27.2810   -9.3240   -7.7880 N.am   55  GLY55      -0.1943
     42  CA        27.2810   -9.1450   -6.3520 C.3    55  GLY55       0.1998
     43  C         25.8470   -9.2980   -5.8780 C.2    55  GLY55       0.2481
     44  O         24.9310   -9.2760   -6.6980 O.2    55  GLY55      -0.2729
     45  N         25.6100   -9.4410   -4.5680 N.am   56  PRO56      -0.2715
     46  CA        24.2560   -9.6030   -4.0280 C.3    56  PRO56       0.1536
     47  C         23.3230   -8.4080   -4.1650 C.2    56  PRO56       0.2599
     48  O         23.7510   -7.2910   -4.4430 O.2    56  PRO56      -0.2715
     49  CB        24.5170   -9.9540   -2.5670 C.3    56  PRO56       0.0310
     50  CG        25.7510   -9.1620   -2.2600 C.3    56  PRO56       0.0237
     51  CD        26.6050   -9.4390   -3.4830 C.3    56  PRO56       0.0939
     52  N         22.0310   -8.6590   -3.9700 N.am   57  GLY57      -0.1941
     53  CA        21.0640   -7.5860   -4.0400 C.3    57  GLY57       0.2014
     54  C         21.1670   -6.7830   -2.7540 C.2    57  GLY57       0.2638
     55  O         21.1880   -7.3440   -1.6550 O.2    57  GLY57      -0.2714
     56  N         21.2490   -5.4680   -2.8900 N.am   58  LEU58      -0.1977
     57  CA        21.3620   -4.5930   -1.7320 C.3    58  LEU58       0.1596
     58  C         20.0550   -3.8760   -1.4690 C.2    58  LEU58       0.2287
     59  O         20.0010   -2.9840   -0.6300 O.2    58  LEU58      -0.2864
     60  CB        22.4590   -3.5520   -1.9650 C.3    58  LEU58       0.0297
     61  CG        23.8180   -4.0910   -2.4120 C.3    58  LEU58       0.0022
     62  CD1       24.7240   -2.9130   -2.7080 C.3    58  LEU58       0.0001
     63  CD2       24.4430   -4.9700   -1.3460 C.3    58  LEU58       0.0001
     64  N         17.7610   -8.8680    3.4870 N.3    62  TYR62      -0.1227
     65  CA        18.7060   -9.8890    3.8980 C.3    62  TYR62       0.1736
     66  C         20.1020   -9.3300    3.6890 C.2    62  TYR62       0.2595
     67  O         20.4010   -8.8150    2.6140 O.2    62  TYR62      -0.2718
     68  CB        18.5730  -11.1720    3.0810 C.3    62  TYR62       0.0548
     69  CG        19.6690  -12.1410    3.4340 C.ar   62  TYR62      -0.0200
     70  CD1       19.7060  -12.7520    4.6890 C.ar   62  TYR62      -0.0009
     71  CD2       20.7350  -12.3660    2.5630 C.ar   62  TYR62      -0.0009
     72  CE1       20.7760  -13.5520    5.0690 C.ar   62  TYR62       0.0417
     73  CE2       21.8130  -13.1640    2.9330 C.ar   62  TYR62       0.0417
     74  CZ        21.8300  -13.7540    4.1880 C.ar   62  TYR62       0.1957
     75  OH        22.8970  -14.5350    4.5660 O.3    62  TYR62      -0.2866
     76  N         20.9420   -9.4310    4.7150 N.am   63  TRP63      -0.1962
     77  CA        22.3170   -8.9520    4.6400 C.3    63  TRP63       0.1771
     78  C         23.2750  -10.0050    5.1720 C.2    63  TRP63       0.2620
     79  O         23.0920  -10.5090    6.2790 O.2    63  TRP63      -0.2715
     80  CB        22.4820   -7.6750    5.4620 C.3    63  TRP63       0.0590
     81  CG        21.5480   -6.5970    5.0690 C.ar   63  TRP63       0.0006
     82  CD1       20.2570   -6.4500    5.4680 C.ar   63  TRP63       0.0946
     83  CD2       21.8220   -5.5080    4.1770 C.ar   63  TRP63       0.0152
     84  NE1       19.7020   -5.3360    4.8870 N.ar   63  TRP63      -0.2442
     85  CE2       20.6440   -4.7390    4.0870 C.ar   63  TRP63       0.0810
     86  CE3       22.9500   -5.1090    3.4450 C.ar   63  TRP63       0.0012
     87  CZ2       20.5570   -3.5890    3.2980 C.ar   63  TRP63       0.0191
     88  CZ3       22.8640   -3.9700    2.6580 C.ar   63  TRP63       0.0001
     89  CH2       21.6740   -3.2200    2.5930 C.ar   63  TRP63       0.0015
     90  N         24.2920  -10.3440    4.3850 N.am   64  THR64      -0.1937
     91  CA        25.2770  -11.3310    4.8080 C.3    64  THR64       0.2028
     92  C         26.0080  -10.7800    6.0200 C.2    64  THR64       0.2642
     93  O         26.3300  -11.5110    6.9600 O.2    64  THR64      -0.2714
     94  CB        26.2900  -11.6250    3.6830 C.3    64  THR64       0.1808
     95  OG1       25.6000  -12.1810    2.5570 O.3    64  THR64      -0.2208
     96  CG2       27.3420  -12.6080    4.1570 C.3    64  THR64       0.0379
     97  N         26.2670   -9.4760    5.9880 N.am   65  TYR65      -0.1973
     98  CA        26.9340   -8.7870    7.0810 C.3    65  TYR65       0.1639
     99  C         25.9460   -7.7210    7.5320 C.2    65  TYR65       0.2290
    100  O         25.8240   -6.6660    6.9100 O.2    65  TYR65      -0.2864
    101  CB        28.2340   -8.1520    6.5820 C.3    65  TYR65       0.0560
    102  CG        29.1220   -9.1320    5.8510 C.ar   65  TYR65      -0.0198
    103  CD1       29.8490  -10.1030    6.5430 C.ar   65  TYR65      -0.0009
    104  CD2       29.1960   -9.1230    4.4590 C.ar   65  TYR65      -0.0009
    105  CE1       30.6230  -11.0450    5.8610 C.ar   65  TYR65       0.0417
    106  CE2       29.9670  -10.0540    3.7710 C.ar   65  TYR65       0.0417
    107  CZ        30.6740  -11.0110    4.4740 C.ar   65  TYR65       0.1957
    108  OH        31.4160  -11.9390    3.7790 O.3    65  TYR65      -0.2866
    109  N         25.9420   -3.8130    7.6800 N.3    68  ASN68      -0.1240
    110  CA        25.5810   -2.9730    6.5440 C.3    68  ASN68       0.1653
    111  C         24.1720   -2.4140    6.6160 C.2    68  ASN68       0.2266
    112  O         23.7500   -1.6900    5.7140 O.2    68  ASN68      -0.2867
    113  CB        25.7890   -3.7320    5.2350 C.3    68  ASN68       0.1155
    114  CG        27.2530   -3.9910    4.9570 C.2    68  ASN68       0.2627
    115  OD1       28.0830   -3.0790    5.0420 O.2    68  ASN68      -0.2716
    116  ND2       27.5850   -5.2320    4.6140 N.am   68  ASN68      -0.0877
    117  N         27.9160    0.3240    6.3810 N.3    74  LEU74      -0.1245
    118  CA        28.0510    0.2750    4.9290 C.3    74  LEU74       0.1561
    119  C         29.2880    1.0780    4.5360 C.2    74  LEU74       0.2260
    120  O         30.0750    0.6630    3.6790 O.2    74  LEU74      -0.2867
    121  CB        26.8060    0.8860    4.2770 C.3    74  LEU74       0.0270
    122  CG        26.3450    0.4250    2.8940 C.3    74  LEU74       0.0019
    123  CD1       27.5240    0.2410    1.9580 C.3    74  LEU74       0.0001
    124  CD2       25.5740   -0.8630    3.0480 C.3    74  LEU74       0.0001
    125  N         32.4730   -0.7300    5.3470 N.3    77  THR77      -0.1203
    126  CA        32.6610   -1.8290    4.4080 C.3    77  THR77       0.1994
    127  C         33.4140   -1.4080    3.1480 C.2    77  THR77       0.2617
    128  O         34.3480   -2.0860    2.7260 O.2    77  THR77      -0.2717
    129  CB        31.3040   -2.4270    4.0110 C.3    77  THR77       0.1784
    130  OG1       30.7530   -3.1160    5.1370 O.3    77  THR77      -0.2211
    131  CG2       31.4540   -3.3870    2.8390 C.3    77  THR77       0.0376
    132  N         33.0090   -0.2920    2.5500 N.am   78  ILE78      -0.1979
    133  CA        33.6570    0.1930    1.3390 C.3    78  ILE78       0.1595
    134  C         35.0080    0.8530    1.5920 C.2    78  ILE78       0.2287
    135  O         35.9900    0.5440    0.9220 O.2    78  ILE78      -0.2864
    136  CB        32.7370    1.1810    0.5860 C.3    78  ILE78       0.0276
    137  CG1       31.4840    0.4430    0.1150 C.3    78  ILE78       0.0022
    138  CG2       33.4640    1.7890   -0.6080 C.3    78  ILE78       0.0022
    139  CD1       31.7880   -0.7580   -0.7600 C.3    78  ILE78       0.0001
    140  N         37.3740   -9.5470    3.2100 N.3    85  MET85      -0.1230
    141  CA        36.5270  -10.7280    3.1100 C.3    85  MET85       0.1702
    142  C         35.0510  -10.3790    2.9630 C.2    85  MET85       0.2592
    143  O         34.1820  -11.2330    3.1410 O.2    85  MET85      -0.2718
    144  CB        36.7380  -11.6340    4.3250 C.3    85  MET85       0.0401
    145  CG        38.0340  -12.4280    4.2670 C.3    85  MET85       0.0596
    146  SD        38.2800  -13.5110    5.6820 S.3    85  MET85      -0.1393
    147  CE        39.6890  -12.7310    6.4600 C.3    85  MET85       0.0692
    148  N         34.7750   -9.1210    2.6360 N.am   86  MET86      -0.1965
    149  CA        33.4040   -8.6640    2.4410 C.3    86  MET86       0.1736
    150  C         33.1910   -8.1940    1.0070 C.2    86  MET86       0.2617
    151  O         32.2580   -7.4450    0.7230 O.2    86  MET86      -0.2715
    152  CB        33.0620   -7.5340    3.4160 C.3    86  MET86       0.0427
    153  CG        32.6660   -8.0160    4.8030 C.3    86  MET86       0.0599
    154  SD        32.0870   -6.6830    5.8730 S.3    86  MET86      -0.1393
    155  CE        30.6250   -6.1390    4.9870 C.3    86  MET86       0.0692
    156  N         34.0670   -8.6360    0.1080 N.am   87  GLY87      -0.1941
    157  CA        33.9410   -8.2610   -1.2880 C.3    87  GLY87       0.1998
    158  C         35.1080   -7.4790   -1.8670 C.2    87  GLY87       0.2481
    159  O         36.0070   -7.0570   -1.1380 O.2    87  GLY87      -0.2729
    160  N         35.1210   -7.2830   -3.1960 N.am   88  PRO88      -0.2715
    161  CA        36.1440   -6.5580   -3.9570 C.3    88  PRO88       0.1536
    162  C         35.7930   -5.0710   -4.0020 C.2    88  PRO88       0.2599
    163  O         35.4110   -4.5310   -5.0430 O.2    88  PRO88      -0.2715
    164  CB        36.0580   -7.2090   -5.3230 C.3    88  PRO88       0.0310
    165  CG        34.5930   -7.4030   -5.4640 C.3    88  PRO88       0.0237
    166  CD        34.1660   -7.9340   -4.1110 C.3    88  PRO88       0.0939
    167  N         35.9230   -4.4250   -2.8540 N.am   89  HIS89      -0.1960
    168  CA        35.6030   -3.0190   -2.7100 C.3    89  HIS89       0.1787
    169  C         36.8370   -2.1830   -2.4260 C.2    89  HIS89       0.2620
    170  O         37.6560   -2.5350   -1.5770 O.2    89  HIS89      -0.2715
    171  CB        34.6010   -2.8530   -1.5730 C.3    89  HIS89       0.0785
    172  CG        33.3610   -3.6700   -1.7480 C.ar   89  HIS89       0.0821
    173  ND1       32.9860   -4.6590   -0.8640 N.ar   89  HIS89      -0.2267
    174  CD2       32.4080   -3.6380   -2.7050 C.ar   89  HIS89       0.1154
    175  CE1       31.8540   -5.2010   -1.2720 C.ar   89  HIS89       0.1986
    176  NE2       31.4800   -4.5990   -2.3870 N.ar   89  HIS89      -0.2212
    177  N         36.9620   -1.0750   -3.1470 N.am   90  ASN90      -0.1972
    178  CA        38.0890   -0.1690   -2.9760 C.3    90  ASN90       0.1688
    179  C         37.5650    1.2250   -2.6560 C.2    90  ASN90       0.2292
    180  O         36.5170    1.6290   -3.1620 O.2    90  ASN90      -0.2864
    181  CB        38.9250   -0.1160   -4.2590 C.3    90  ASN90       0.1181
    182  CG        39.4340   -1.4800   -4.6830 C.2    90  ASN90       0.2629
    183  OD1       38.6570   -2.3550   -5.0630 O.2    90  ASN90      -0.2716
    184  ND2       40.7470   -1.6690   -4.6170 N.am   90  ASN90      -0.0877
    185  N         37.1300    4.4970   -3.4470 N.3    92  ASN92      -0.1225
    186  CA        37.3020    5.3280   -4.6340 C.3    92  ASN92       0.1785
    187  C         36.4770    6.6080   -4.5630 C.2    92  ASN92       0.2597
    188  O         36.7180    7.5560   -5.3100 O.2    92  ASN92      -0.2718
    189  CB        36.9380    4.5340   -5.8940 C.3    92  ASN92       0.1169
    190  CG        35.5200    3.9910   -5.8600 C.2    92  ASN92       0.2627
    191  OD1       35.1780    3.1650   -5.0100 O.2    92  ASN92      -0.2716
    192  ND2       34.6860    4.4530   -6.7900 N.am   92  ASN92      -0.0877
    193  N         35.5040    6.6310   -3.6590 N.am   93  LEU93      -0.1980
    194  CA        34.6510    7.7960   -3.4800 C.3    93  LEU93       0.1596
    195  C         35.1140    8.5820   -2.2630 C.2    93  LEU93       0.2287
    196  O         35.7160    8.0210   -1.3460 O.2    93  LEU93      -0.2864
    197  CB        33.1970    7.3670   -3.2550 C.3    93  LEU93       0.0297
    198  CG        32.4940    6.5610   -4.3450 C.3    93  LEU93       0.0022
    199  CD1       31.1150    6.1530   -3.8550 C.3    93  LEU93       0.0001
    200  CD2       32.3840    7.3910   -5.6090 C.3    93  LEU93       0.0001
    201  N         30.3500    9.1280   -0.6630 N.3    98  MET98      -0.1245
    202  CA        29.9100    7.8490   -0.1270 C.3    98  MET98       0.1570
    203  C         28.5660    7.9950    0.5690 C.2    98  MET98       0.2261
    204  O         27.7010    7.1330    0.4370 O.2    98  MET98      -0.2867
    205  CB        30.9440    7.3030    0.8580 C.3    98  MET98       0.0387
    206  CG        30.7190    5.8540    1.2560 C.3    98  MET98       0.0595
    207  SD        30.9860    4.7040   -0.1110 S.3    98  MET98      -0.1393
    208  CE        29.3700    4.3830   -0.5900 C.3    98  MET98       0.0692
    209  N         21.3680    4.0000   -2.2060 N.3   105  ILE105     -0.1245
    210  CA        21.1520    2.5800   -2.0050 C.3   105  ILE105      0.1561
    211  C         19.9510    2.3870   -1.0880 C.2   105  ILE105      0.2260
    212  O         19.1110    1.5180   -1.3320 O.2   105  ILE105     -0.2867
    213  CB        22.4070    1.9170   -1.4090 C.3   105  ILE105      0.0252
    214  CG1       23.4920    1.8550   -2.4850 C.3   105  ILE105      0.0019
    215  CG2       22.0630    0.5350   -0.8620 C.3   105  ILE105      0.0019
    216  CD1       24.8830    1.4490   -1.9670 C.3   105  ILE105      0.0001
@<TRIPOS>BOND
     1    16    15    2
     2    39    38    1
     3    14    15    1
     4    14    13    1
     5    40    38    1
     6    38    37    1
     7    15    17   am
     8    17    18    1
     9    37    34    1
    10    33    34    1
    11    18    19    1
    12    18    21    1
    13    22    21    1
    14    34    35    1
    15     1     2    1
    16    19    20    2
    17    19    23   am
    18     2     3    1
    19     2     5    1
    20     9    10    2
    21     9     8    1
    22    23    24    1
    23    25    26    2
    24    25    24    1
    25     7     3   am
    26     7     8    1
    27     3     4    2
    28    35    41   am
    29    35    36    2
    30     6     5    1
    31    24    27    1
    32     8    11    1
    33    41    42    1
    34   192   190   am
    35    27    28    1
    36    44    43    2
    37    11    12    1
    38    42    43    1
    39   189   190    1
    40   189   186    1
    41    43    45   am
    42   190   191    2
    43    28    30   ar
    44    28    29   ar
    45   200   198    1
    46    30    32   ar
    47   165   164    1
    48   165   166    1
    49   164   161    1
    50   188   187    2
    51   183   182    2
    52   163   162    2
    53    29    31   ar
    54   182   184   am
    55   182   181    1
    56   186   187    1
    57   186   185    1
    58    45    46    1
    59    45    51    1
    60   187   193   am
    61    32    31   ar
    62    48    47    2
    63   198   199    1
    64   198   197    1
    65   181   178    1
    66    47    46    1
    67    47    52   am
    68   166   160    1
    69    53    52    1
    70    53    54    1
    71    46    49    1
    72   162   161    1
    73   162   167   am
    74   161   160    1
    75   193   194    1
    76    51    50    1
    77   194   197    1
    78   194   195    1
    79   160   158   am
    80   180   179    2
    81   177   178    1
    82   177   169   am
    83   178   179    1
    84    56    54   am
    85    56    57    1
    86   167   168    1
    87    54    55    2
    88   168   169    1
    89   168   171    1
    90    62    61    1
    91   174   176   ar
    92   174   172   ar
    93    49    50    1
    94   214   216    1
    95   214   213    1
    96   169   170    2
    97    61    60    1
    98    61    63    1
    99   176   175   ar
   100   195   196    2
   101   209   210    1
   102   210   213    1
   103   210   211    1
   104    60    57    1
   105   158   157    1
   106   158   159    2
   107   172   171    1
   108   172   173   ar
   109    57    58    1
   110    58    59    2
   111   213   215    1
   112   212   211    2
   113   157   156    1
   114   175   173   ar
   115   139   137    1
   116   201   202    1
   117   138   136    1
   118   208   207    1
   119   202   203    1
   120   202   205    1
   121   207   206    1
   122   156   150   am
   123   137   136    1
   124   204   203    2
   125   136   133    1
   126   151   150    2
   127   205   206    1
   128   135   134    2
   129   150   149    1
   130   133   134    1
   131   133   132    1
   132   123   122    1
   133   149   148    1
   134   149   152    1
   135   132   127   am
   136    95    94    1
   137    71    73   ar
   138    71    69   ar
   139    89    88   ar
   140    89    87   ar
   141    67    66    2
   142   148   142   am
   143    88    86   ar
   144   128   127    2
   145   131   129    1
   146   122   124    1
   147   122   121    1
   148    73    74   ar
   149   142   141    1
   150   142   143    2
   151    68    69    1
   152    68    65    1
   153   141   140    1
   154   141   144    1
   155   127   126    1
   156    87    85   ar
   157   152   153    1
   158    69    70   ar
   159    86    83   ar
   160    64    65    1
   161   120   119    2
   162    94    96    1
   163    94    91    1
   164    66    65    1
   165    66    76   am
   166   106   104   ar
   167   106   107   ar
   168   108   107    1
   169   129   126    1
   170   129   130    1
   171    85    83   ar
   172    85    84   ar
   173    83    81   ar
   174    74    75    1
   175    74    72   ar
   176   145   144    1
   177   145   146    1
   178   121   118    1
   179    90    91    1
   180    90    78   am
   181   126   125    1
   182   104   102   ar
   183   107   105   ar
   184   119   118    1
   185   116   114   am
   186    77    76    1
   187    77    78    1
   188    77    80    1
   189    70    72   ar
   190   153   154    1
   191    91    92    1
   192    84    82   ar
   193   118   117    1
   194   114   115    2
   195   114   113    1
   196   155   154    1
   197    81    80    1
   198    81    82   ar
   199    78    79    2
   200   113   110    1
   201   146   147    1
   202   112   111    2
   203   102   103   ar
   204   102   101    1
   205   105   103   ar
   206    97    92   am
   207    97    98    1
   208    92    93    2
   209   110   111    1
   210   110   109    1
   211   101    98    1
   212   100    99    2
   213    98    99    1
