@<TRIPOS>MOLECULE
tmp/2c8wB01.pdb
 223 223 0 0 0
SMALL
GASTEIGER

@<TRIPOS>ATOM
      1  N         -0.3160   27.3880   52.7160 N.3    43  HIS43      -0.1241
      2  CA        -0.1800   25.9920   53.1470 C.3    43  HIS43       0.1621
      3  C          0.5720   25.8500   54.4910 C.2    43  HIS43       0.2264
      4  O          0.5240   24.8010   55.1330 O.2    43  HIS43      -0.2867
      5  CB         0.4540   25.1200   52.0430 C.3    43  HIS43       0.0745
      6  CG         1.9530   25.1260   52.0310 C.ar   43  HIS43       0.0817
      7  ND1        2.6930   25.7990   51.0770 N.ar   43  HIS43      -0.2268
      8  CD2        2.8500   24.5070   52.8350 C.ar   43  HIS43       0.1154
      9  CE1        3.9800   25.6170   51.3220 C.ar   43  HIS43       0.1986
     10  NE2        4.1000   24.8410   52.3850 N.ar   43  HIS43      -0.2212
     11  N         -3.8910   23.3980   55.7730 N.3    47  TYR47      -0.1241
     12  CA        -3.7290   22.2290   54.9190 C.3    47  TYR47       0.1605
     13  C         -4.5600   21.0560   55.4690 C.2    47  TYR47       0.2264
     14  O         -4.0290   20.1140   56.0990 O.2    47  TYR47      -0.2867
     15  CB        -2.2740   21.8210   54.7560 C.3    47  TYR47       0.0534
     16  CG        -2.1020   20.9150   53.5710 C.ar   47  TYR47      -0.0201
     17  CD1       -2.4010   21.3700   52.2860 C.ar   47  TYR47      -0.0009
     18  CD2       -1.6820   19.6040   53.7200 C.ar   47  TYR47      -0.0009
     19  CE1       -2.2720   20.5440   51.1890 C.ar   47  TYR47       0.0417
     20  CE2       -1.5420   18.7620   52.6150 C.ar   47  TYR47       0.0417
     21  CZ        -1.8440   19.2480   51.3520 C.ar   47  TYR47       0.1957
     22  OH        -1.7120   18.4380   50.2470 O.3    47  TYR47      -0.2866
     23  N         -3.7570   17.1500   56.0950 N.3    50  TRP50      -0.1241
     24  CA        -2.8990   16.7860   57.2270 C.3    50  TRP50       0.1605
     25  C         -3.4460   17.2790   58.5660 C.2    50  TRP50       0.2264
     26  O         -2.7330   17.2340   59.5710 O.2    50  TRP50      -0.2867
     27  CB        -1.4880   17.3610   57.0280 C.3    50  TRP50       0.0550
     28  CG        -0.7330   16.7950   55.8620 C.ar   50  TRP50       0.0003
     29  CD1       -1.1100   15.7610   55.0470 C.ar   50  TRP50       0.0946
     30  CD2        0.5610   17.2000   55.4120 C.ar   50  TRP50       0.0152
     31  NE1       -0.1450   15.5230   54.1030 N.ar   50  TRP50      -0.2442
     32  CE2        0.8960   16.3870   54.3090 C.ar   50  TRP50       0.0810
     33  CE3        1.4660   18.1860   55.8250 C.ar   50  TRP50       0.0012
     34  CZ2        2.0940   16.5320   53.6140 C.ar   50  TRP50       0.0191
     35  CZ3        2.6540   18.3210   55.1420 C.ar   50  TRP50       0.0001
     36  CH2        2.9590   17.5040   54.0460 C.ar   50  TRP50       0.0015
     37  N         -4.0920   20.3780   59.3710 N.3    52  LYS52      -0.1245
     38  CA        -3.4540   21.6510   59.7010 C.3    52  LYS52       0.1561
     39  C         -4.4480   22.7830   59.5000 C.2    52  LYS52       0.2260
     40  O         -4.9580   22.9850   58.3920 O.2    52  LYS52      -0.2867
     41  CB        -2.2280   21.8650   58.8140 C.3    52  LYS52       0.0271
     42  CG        -1.5770   23.2330   58.9680 C.3    52  LYS52       0.0035
     43  CD        -0.3920   23.3950   58.0340 C.3    52  LYS52       0.0206
     44  CE         0.7820   22.5000   58.3950 C.3    52  LYS52       0.1093
     45  NZ         1.6910   22.3620   57.2180 N.3    52  LYS52      -0.1314
     46  N         -5.9650   23.9740   48.0650 N.3    92  TRP92      -0.1227
     47  CA        -5.2890   22.9150   48.7890 C.3    92  TRP92       0.1737
     48  C         -5.6900   21.5240   48.3270 C.2    92  TRP92       0.2595
     49  O         -4.9810   20.5510   48.6120 O.2    92  TRP92      -0.2718
     50  CB        -5.5480   23.0400   50.2880 C.3    92  TRP92       0.0564
     51  CG        -6.9980   23.1420   50.7170 C.ar   92  TRP92       0.0003
     52  CD1       -7.6920   24.2830   50.9980 C.ar   92  TRP92       0.0946
     53  CD2       -7.8980   22.0530   50.9840 C.ar   92  TRP92       0.0152
     54  NE1       -8.9860   23.9820   51.3740 N.ar   92  TRP92      -0.2442
     55  CE2       -9.1310   22.6180   51.3870 C.ar   92  TRP92       0.0810
     56  CE3       -7.7830   20.6580   50.9090 C.ar   92  TRP92       0.0012
     57  CZ2      -10.2400   21.8350   51.7240 C.ar   92  TRP92       0.0191
     58  CZ3       -8.8860   19.8790   51.2510 C.ar   92  TRP92       0.0001
     59  CH2      -10.0970   20.4730   51.6510 C.ar   92  TRP92       0.0015
     60  N         -6.8270   21.4280   47.6450 N.am   93  ARG93      -0.1966
     61  CA        -7.3280   20.1320   47.1680 C.3    93  ARG93       0.1729
     62  C         -6.5040   19.5730   46.0360 C.2    93  ARG93       0.2616
     63  O         -6.3360   18.3550   45.9400 O.2    93  ARG93      -0.2715
     64  CB        -8.7900   20.2420   46.7250 C.3    93  ARG93       0.0348
     65  CG        -9.7450   20.4890   47.8690 C.3    93  ARG93       0.0492
     66  CD       -11.1970   20.5950   47.3920 C.3    93  ARG93       0.2205
     67  NE       -12.1010   20.6020   48.5350 N.pl3  93  ARG93      -0.0865
     68  CZ       -12.4600   19.5050   49.2010 C.cat  93  ARG93       0.5346
     69  NH1      -12.0200   18.3100   48.8230 N.pl3  93  ARG93       0.1354
     70  NH2      -13.2780   19.6050   50.2410 N.pl3  93  ARG93       0.1354
     71  N         -5.9890   20.4400   45.1680 N.am   94  GLU94      -0.1963
     72  CA        -5.3220   19.9610   43.9650 C.3    94  GLU94       0.1733
     73  C         -3.8290   20.2560   43.9400 C.2    94  GLU94       0.2616
     74  O         -3.0290   19.3430   44.0730 O.2    94  GLU94      -0.2715
     75  CB        -5.9980   20.5170   42.7150 C.3    94  GLU94       0.0429
     76  CG        -5.3980   19.9670   41.4220 C.3    94  GLU94       0.1163
     77  CD        -5.9560   20.5950   40.1490 C.2    94  GLU94       0.3649
     78  OE1       -6.8650   21.4600   40.2160 O.co2  94  GLU94      -0.2457
     79  OE2       -5.4630   20.2080   39.0640 O.co2  94  GLU94      -0.2457
     80  N         -3.4610   21.5280   43.7680 N.am   95  ASN95      -0.1958
     81  CA        -2.1080   21.8820   43.3340 C.3    95  ASN95       0.1819
     82  C         -1.4910   23.1000   44.0340 C.2    95  ASN95       0.2621
     83  O         -0.4630   23.5960   43.5810 O.2    95  ASN95      -0.2715
     84  CB        -2.1310   22.1220   41.8150 C.3    95  ASN95       0.1195
     85  CG        -3.1170   23.2100   41.4120 C.2    95  ASN95       0.2630
     86  OD1       -3.7940   23.7850   42.2580 O.2    95  ASN95      -0.2716
     87  ND2       -3.2110   23.4820   40.1180 N.am   95  ASN95      -0.0877
     88  N         -2.0980   23.5520   45.1400 N.am   96  LEU96      -0.1977
     89  CA        -1.6280   24.7310   45.9050 C.3    96  LEU96       0.1596
     90  C         -1.6790   26.0280   45.0990 C.2    96  LEU96       0.2287
     91  O         -0.9150   26.9750   45.3590 O.2    96  LEU96      -0.2864
     92  CB        -0.2120   24.5380   46.4930 C.3    96  LEU96       0.0297
     93  CG         0.0410   23.5460   47.6210 C.3    96  LEU96       0.0022
     94  CD1        1.3880   23.8740   48.3140 C.3    96  LEU96       0.0001
     95  CD2       -1.0830   23.4560   48.6380 C.3    96  LEU96       0.0001
     96  N         17.3970   16.8450   51.4260 N.3   146  GLU146     -0.1245
     97  CA        16.1010   16.1770   51.4070 C.3   146  GLU146      0.1567
     98  C         16.0360   15.0630   52.4620 C.2   146  GLU146      0.2260
     99  O         17.0030   14.3030   52.6150 O.2   146  GLU146     -0.2867
    100  CB        15.8460   15.5940   50.0190 C.3   146  GLU146      0.0388
    101  CG        14.5230   14.8820   49.9060 C.3   146  GLU146      0.1160
    102  CD        14.2500   14.3810   48.5170 C.2   146  GLU146      0.3649
    103  OE1       14.6610   15.0290   47.5340 O.co2 146  GLU146     -0.2457
    104  OE2       13.5970   13.3270   48.4140 O.co2 146  GLU146     -0.2457
    105  N          2.0760   17.5480   38.2630 N.3   171  ILE171     -0.1245
    106  CA         1.1690   18.4920   38.9180 C.3   171  ILE171      0.1561
    107  C          0.7380   19.5430   37.9110 C.2   171  ILE171      0.2260
    108  O          1.5510   20.0090   37.0960 O.2   171  ILE171     -0.2867
    109  CB         1.8500   19.2060   40.1400 C.3   171  ILE171      0.0252
    110  CG1        2.4410   18.1960   41.1360 C.3   171  ILE171      0.0019
    111  CG2        0.8620   20.1330   40.8640 C.3   171  ILE171      0.0019
    112  CD1        1.5030   17.7150   42.1590 C.3   171  ILE171      0.0001
    113  N         18.1290   24.6830   46.0300 N.3   191  ASP191     -0.1225
    114  CA        16.6740   24.5800   46.1690 C.3   191  ASP191      0.1805
    115  C         16.2850   24.9730   47.5860 C.2   191  ASP191      0.2598
    116  O         17.1230   24.9580   48.4880 O.2   191  ASP191     -0.2718
    117  CB        16.2170   23.1370   45.9120 C.3   191  ASP191      0.1424
    118  CG        14.7440   23.0220   45.5240 C.2   191  ASP191      0.3668
    119  OD1       14.0190   24.0400   45.4850 O.co2 191  ASP191     -0.2456
    120  OD2       14.3050   21.8690   45.2400 O.co2 191  ASP191     -0.2456
    121  N         15.0170   25.3340   47.7750 N.am  192  ALA192     -0.1966
    122  CA        14.4300   25.3230   49.0950 C.3   192  ALA192      0.1728
    123  C         14.2500   23.8700   49.5250 C.2   192  ALA192      0.2616
    124  O         14.3130   22.9390   48.7120 O.2   192  ALA192     -0.2715
    125  CB        13.0780   26.0150   49.0990 C.3   192  ALA192      0.0334
    126  N         13.9690   23.6850   50.8010 N.am  193  CYS193     -0.1954
    127  CA        13.6530   22.3540   51.3130 C.3   193  CYS193      0.1843
    128  C         12.7260   22.5080   52.5180 C.2   193  CYS193      0.2625
    129  O         12.1280   23.5730   52.7050 O.2   193  CYS193     -0.2714
    130  CB        14.9440   21.5870   51.6190 C.3   193  CYS193      0.0997
    131  SG        14.7630   19.7540   51.6700 S.3   193  CYS193     -0.0797
    132  N         12.5780   21.4500   53.3130 N.am  194  GLU194     -0.1977
    133  CA        11.6000   21.4060   54.3800 C.3   194  GLU194      0.1602
    134  C         11.8910   22.4640   55.4350 C.2   194  GLU194      0.2287
    135  O         13.0140   22.5250   55.9460 O.2   194  GLU194     -0.2864
    136  CB        11.6140   20.0070   55.0050 C.3   194  GLU194      0.0415
    137  CG        10.4580   19.6980   55.9100 C.3   194  GLU194      0.1163
    138  CD        10.5370   18.2750   56.4730 C.2   194  GLU194      0.3649
    139  OE1       10.9090   17.3390   55.7190 O.co2 194  GLU194     -0.2457
    140  OE2       10.2360   18.1050   57.6730 O.co2 194  GLU194     -0.2457
    141  N          9.3270   26.7620   53.2570 N.3   197  SER197     -0.1217
    142  CA         8.0520   27.1590   52.6570 C.3   197  SER197      0.1889
    143  C          7.5850   28.4240   53.3260 C.2   197  SER197      0.2288
    144  O          7.7700   28.5990   54.5410 O.2   197  SER197     -0.2866
    145  CB         6.9820   26.0640   52.8780 C.3   197  SER197      0.2089
    146  OG         7.1110   25.0310   51.9350 O.3   197  SER197     -0.2183
    147  N          7.9680   30.7820   48.5180 N.3   217  VAL217     -0.1231
    148  CA         8.3360   29.3650   48.4350 C.3   217  VAL217      0.1692
    149  C          7.0290   28.5700   48.6480 C.2   217  VAL217      0.2593
    150  O          6.4410   28.6340   49.7200 O.2   217  VAL217     -0.2718
    151  CB         9.4070   28.9810   49.5030 C.3   217  VAL217      0.0266
    152  CG1        9.7670   27.4480   49.4500 C.3   217  VAL217      0.0020
    153  CG2       10.7010   29.8760   49.3980 C.3   217  VAL217      0.0020
    154  N          6.6100   27.8090   47.6410 N.am  218  SER218     -0.1938
    155  CA         5.3020   27.1660   47.6640 C.3   218  SER218      0.2055
    156  C          5.3910   25.6430   47.6600 C.2   218  SER218      0.2643
    157  O          4.9990   25.0250   48.6270 O.2   218  SER218     -0.2714
    158  CB         4.4290   27.6660   46.5260 C.3   218  SER218      0.2130
    159  OG         3.1650   27.0600   46.5950 O.3   218  SER218     -0.2179
    160  N          5.8730   25.0280   46.5850 N.am  219  TRP219     -0.1959
    161  CA         5.9930   23.5680   46.5730 C.3   219  TRP219      0.1771
    162  C          7.0900   23.0500   45.6650 C.2   219  TRP219      0.2620
    163  O          7.5390   23.7240   44.7400 O.2   219  TRP219     -0.2715
    164  CB         4.6480   22.9050   46.2000 C.3   219  TRP219      0.0590
    165  CG         4.1420   23.2860   44.8520 C.ar  219  TRP219      0.0006
    166  CD1        3.4400   24.4060   44.5270 C.ar  219  TRP219      0.0946
    167  CD2        4.2910   22.5450   43.6380 C.ar  219  TRP219      0.0152
    168  NE1        3.1430   24.4120   43.2000 N.ar  219  TRP219     -0.2442
    169  CE2        3.6480   23.2780   42.6240 C.ar  219  TRP219      0.0810
    170  CE3        4.9120   21.3380   43.3090 C.ar  219  TRP219      0.0012
    171  CZ2        3.6140   22.8480   41.2870 C.ar  219  TRP219      0.0191
    172  CZ3        4.8710   20.9060   41.9910 C.ar  219  TRP219      0.0001
    173  CH2        4.2250   21.6600   40.9970 C.ar  219  TRP219      0.0015
    174  N          7.5100   21.8210   45.9350 N.am  220  GLY220     -0.1940
    175  CA         8.5920   21.1850   45.1890 C.3   220  GLY220      0.2014
    176  C          8.5490   19.7170   45.5550 C.2   220  GLY220      0.2639
    177  O          8.1780   19.3740   46.6590 O.2   220  GLY220     -0.2714
    178  N          8.8950   18.8600   44.6160 N.am  221  GLU221     -0.1963
    179  CA         8.8700   17.4190   44.8320 C.3   221  GLU221      0.1733
    180  C         10.2800   16.9980   45.1940 C.2   221  GLU221      0.2617
    181  O         11.1680   17.0060   44.3470 O.2   221  GLU221     -0.2715
    182  CB         8.3810   16.7350   43.5650 C.3   221  GLU221      0.0429
    183  CG         6.9170   17.0740   43.2620 C.3   221  GLU221      0.1163
    184  CD         6.4820   16.6210   41.8760 C.2   221  GLU221      0.3649
    185  OE1        6.7730   17.3240   40.8880 O.co2 221  GLU221     -0.2457
    186  OE2        5.8340   15.5630   41.7970 O.co2 221  GLU221     -0.2457
    187  N         10.4790   16.7020   46.4730 N.am  222  GLY222     -0.1940
    188  CA        11.8070   16.5590   47.0470 C.3   222  GLY222      0.2014
    189  C         12.5240   17.9030   47.0680 C.2   222  GLY222      0.2639
    190  O         11.9030   18.9520   46.8660 O.2   222  GLY222     -0.2714
    191  N         13.8290   17.8620   47.3130 N.am  223  CYS223     -0.1967
    192  CA        14.6710   19.0580   47.3030 C.3   223  CYS223      0.1712
    193  C         15.9060   18.8270   46.4680 C.2   223  CYS223      0.2296
    194  O         16.5780   17.8030   46.6250 O.2   223  CYS223     -0.2864
    195  CB        15.1120   19.4300   48.7030 C.3   223  CYS223      0.0983
    196  SG        13.8340   19.2840   49.9210 S.3   223  CYS223     -0.0798
    197  N         11.8090   24.0590   42.0290 N.3   230  GLY230     -0.1210
    198  CA        10.9580   24.6570   43.0410 C.3   230  GLY230      0.1956
    199  C          9.8940   25.5270   42.4010 C.2   230  GLY230      0.2612
    200  O         10.1440   26.1980   41.4060 O.2   230  GLY230     -0.2717
    201  N          8.6930   25.4800   42.9620 N.am  231  PHE231     -0.1962
    202  CA         7.5750   26.3040   42.5260 C.3   231  PHE231      0.1771
    203  C          7.2580   27.3730   43.5520 C.2   231  PHE231      0.2619
    204  O          7.2390   27.1300   44.7700 O.2   231  PHE231     -0.2715
    205  CB         6.3540   25.4510   42.2170 C.3   231  PHE231      0.0574
    206  CG         6.4670   24.7400   40.9090 C.ar  231  PHE231     -0.0200
    207  CD1        7.2320   23.5880   40.8050 C.ar  231  PHE231     -0.0042
    208  CD2        5.8690   25.2540   39.7640 C.ar  231  PHE231     -0.0042
    209  CE1        7.3710   22.9370   39.6010 C.ar  231  PHE231     -0.0003
    210  CE2        6.0110   24.6010   38.5410 C.ar  231  PHE231     -0.0003
    211  CZ         6.7670   23.4440   38.4620 C.ar  231  PHE231     -0.0000
    212  N          6.9730   28.5610   43.0380 N.am  232  TYR232     -0.1974
    213  CA         6.8350   29.7570   43.8620 C.3   232  TYR232      0.1639
    214  C          5.5050   30.4170   43.5590 C.2   232  TYR232      0.2290
    215  O          5.0980   30.4940   42.4050 O.2   232  TYR232     -0.2864
    216  CB         8.0080   30.7050   43.5750 C.3   232  TYR232      0.0560
    217  CG         9.3310   30.0960   43.9610 C.ar  232  TYR232     -0.0198
    218  CD1        9.9910   29.1930   43.1070 C.ar  232  TYR232     -0.0009
    219  CD2        9.8930   30.3490   45.1880 C.ar  232  TYR232     -0.0009
    220  CE1       11.1510   28.5880   43.4810 C.ar  232  TYR232      0.0417
    221  CE2       11.0860   29.7390   45.5710 C.ar  232  TYR232      0.0417
    222  CZ        11.7060   28.8540   44.7100 C.ar  232  TYR232      0.1957
    223  OH        12.8850   28.2250   45.0730 O.3   232  TYR232     -0.2866
@<TRIPOS>BOND
     1   108   107    2
     2   107   106    1
     3   105   106    1
     4   211   210   ar
     5   211   209   ar
     6   210   208   ar
     7   106   109    1
     8    79    77   ar
     9   209   207   ar
    10   208   206   ar
    11    87    85   am
    12   109   111    1
    13   109   110    1
    14    77    78   ar
    15    77    76    1
    16   207   206   ar
    17   185   184   ar
    18   206   205    1
    19   173   171   ar
    20   173   172   ar
    21   110   112    1
    22   171   169   ar
    23   200   199    2
    24    85    84    1
    25    85    86    2
    26    76    75    1
    27   186   184   ar
    28    84    81    1
    29   184   183    1
    30   172   170   ar
    31   197   198    1
    32   205   202    1
    33   199   201   am
    34   199   198    1
    35   215   214    2
    36   202   201    1
    37   202   203    1
    38   169   168   ar
    39   169   167   ar
    40    75    72    1
    41   212   203   am
    42   212   213    1
    43   218   220   ar
    44   218   217   ar
    45   168   166   ar
    46   183   182    1
    47   170   167   ar
    48    81    80    1
    49    81    82    1
    50   220   222   ar
    51   203   204    2
    52   214   213    1
    53   182   179    1
    54   216   213    1
    55   216   217    1
    56    83    82    2
    57   167   165   ar
    58    80    73   am
    59    73    72    1
    60    73    74    2
    61   217   219   ar
    62    72    71    1
    63    82    88   am
    64   181   180    2
    65   166   165   ar
    66   178   179    1
    67   178   176   am
    68   222   223    1
    69   222   221   ar
    70   163   162    2
    71   179   180    1
    72   165   164    1
    73    90    91    2
    74    90    89    1
    75    88    89    1
    76    71    62   am
    77   219   221   ar
    78   175   176    1
    79   175   174    1
    80   180   187   am
    81   120   118   ar
    82   119   118   ar
    83   118   117    1
    84   176   177    2
    85   162   174   am
    86   162   161    1
    87    89    92    1
    88   117   114    1
    89    63    62    2
    90   113   114    1
    91    62    61    1
    92   114   115    1
    93   164   161    1
    94   193   194    2
    95   193   192    1
    96   187   188    1
    97    92    93    1
    98   158   159    1
    99   158   155    1
   100   161   160    1
   101   160   156   am
   102    64    61    1
   103    64    65    1
   104   190   189    2
   105   188   189    1
   106   189   191   am
   107    61    60    1
   108   192   191    1
   109   192   195    1
   110    66    65    1
   111    66    67    1
   112   103   102   ar
   113   115   121   am
   114   115   116    2
   115    93    94    1
   116    93    95    1
   117   154   155    1
   118   154   149   am
   119    60    48   am
   120   156   155    1
   121   156   157    2
   122   121   122    1
   123    46    47    1
   124    48    49    2
   125    48    47    1
   126   104   102   ar
   127   148   147    1
   128   148   149    1
   129   148   151    1
   130   102   101    1
   131    67    68    2
   132   149   150    2
   133   195   196    1
   134   124   123    2
   135    47    50    1
   136    69    68    1
   137   122   125    1
   138   122   123    1
   139    68    70    1
   140   153   151    1
   141   152   151    1
   142   123   126   am
   143   101   100    1
   144   196   131    1
   145   100    97    1
   146    22    21    1
   147    50    51    1
   148    51    53   ar
   149    51    52   ar
   150   126   127    1
   151    56    53   ar
   152    56    58   ar
   153    53    55   ar
   154    52    54   ar
   155     7     9   ar
   156     7     6   ar
   157    19    21   ar
   158    19    17   ar
   159    58    59   ar
   160   127   130    1
   161   127   128    1
   162     9    10   ar
   163    21    20   ar
   164    54    55   ar
   165    55    57   ar
   166    97    96    1
   167    97    98    1
   168   130   131    1
   169    59    57   ar
   170   146   145    1
   171     6     5    1
   172     6     8   ar
   173     5     2    1
   174    17    16   ar
   175    10     8   ar
   176    98    99    2
   177   128   129    2
   178   128   132   am
   179    20    18   ar
   180   142   145    1
   181   142   141    1
   182   142   143    1
   183     1     2    1
   184     2     3    1
   185   132   133    1
   186   143   144    2
   187    16    18   ar
   188    16    15    1
   189    34    36   ar
   190    34    32   ar
   191    36    35   ar
   192    31    32   ar
   193    31    29   ar
   194    32    30   ar
   195   133   136    1
   196   133   134    1
   197     3     4    2
   198    15    12    1
   199    12    13    1
   200    12    11    1
   201   136   137    1
   202    29    28   ar
   203    35    33   ar
   204    30    33   ar
   205    30    28   ar
   206   134   135    2
   207    13    14    2
   208   139   138   ar
   209    28    27    1
   210   137   138    1
   211    23    24    1
   212   138   140   ar
   213    27    24    1
   214    45    44    1
   215    24    25    1
   216    43    44    1
   217    43    42    1
   218    40    39    2
   219    25    26    2
   220    41    42    1
   221    41    38    1
   222    37    38    1
   223    39    38    1
