@<TRIPOS>MOLECULE
tmp/2c8xB01.pdb
 214 215 0 0 0
SMALL
GASTEIGER

@<TRIPOS>ATOM
      1  N         -0.4650   27.1430   52.5280 N.3    43  HIS43      -0.1241
      2  CA        -0.3540   25.7690   52.9920 C.3    43  HIS43       0.1621
      3  C          0.4150   25.6360   54.3070 C.2    43  HIS43       0.2264
      4  O          0.3940   24.5820   54.9230 O.2    43  HIS43      -0.2867
      5  CB         0.2610   24.8640   51.9170 C.3    43  HIS43       0.0745
      6  CG         1.7540   24.8950   51.8580 C.ar   43  HIS43       0.0817
      7  ND1        2.4430   25.5770   50.8790 N.ar   43  HIS43      -0.2268
      8  CD2        2.6900   24.2760   52.6160 C.ar   43  HIS43       0.1154
      9  CE1        3.7410   25.4070   51.0640 C.ar   43  HIS43       0.1986
     10  NE2        3.9170   24.6260   52.1110 N.ar   43  HIS43      -0.2212
     11  N         -3.7290   23.1880   55.4840 N.3    47  TYR47      -0.1241
     12  CA        -3.5830   22.0350   54.6170 C.3    47  TYR47       0.1605
     13  C         -4.3760   20.8340   55.1950 C.2    47  TYR47       0.2264
     14  O         -3.7950   19.9480   55.8480 O.2    47  TYR47      -0.2867
     15  CB        -2.1240   21.6630   54.4040 C.3    47  TYR47       0.0534
     16  CG        -1.9810   20.6690   53.2840 C.ar   47  TYR47      -0.0201
     17  CD1       -2.3610   21.0120   52.0030 C.ar   47  TYR47      -0.0009
     18  CD2       -1.5040   19.3770   53.5130 C.ar   47  TYR47      -0.0009
     19  CE1       -2.2600   20.1140   50.9550 C.ar   47  TYR47       0.0417
     20  CE2       -1.4090   18.4570   52.4730 C.ar   47  TYR47       0.0417
     21  CZ        -1.7870   18.8400   51.1880 C.ar   47  TYR47       0.1957
     22  OH        -1.7160   17.9540   50.1290 O.3    47  TYR47      -0.2866
     23  N         -3.4490   16.8850   55.7620 N.3    50  TRP50      -0.1241
     24  CA        -2.5740   16.5290   56.8790 C.3    50  TRP50       0.1605
     25  C         -3.0700   17.1250   58.1870 C.2    50  TRP50       0.2264
     26  O         -2.2830   17.3220   59.1050 O.2    50  TRP50      -0.2867
     27  CB        -1.1400   17.0000   56.6170 C.3    50  TRP50       0.0550
     28  CG        -0.4940   16.3630   55.4240 C.ar   50  TRP50       0.0003
     29  CD1       -0.9700   15.3030   54.6840 C.ar   50  TRP50       0.0946
     30  CD2        0.7600   16.7190   54.8440 C.ar   50  TRP50       0.0152
     31  NE1       -0.0920   15.0020   53.6720 N.ar   50  TRP50      -0.2442
     32  CE2        0.9810   15.8520   53.7520 C.ar   50  TRP50       0.0810
     33  CE3        1.7200   17.6930   55.1350 C.ar   50  TRP50       0.0012
     34  CZ2        2.1210   15.9370   52.9520 C.ar   50  TRP50       0.0191
     35  CZ3        2.8510   17.7690   54.3480 C.ar   50  TRP50       0.0001
     36  CH2        3.0400   16.9040   53.2690 C.ar   50  TRP50       0.0015
     37  N         -3.8520   20.1600   59.0610 N.3    52  LYS52      -0.1245
     38  CA        -3.2540   21.4390   59.4270 C.3    52  LYS52       0.1561
     39  C         -4.2980   22.5200   59.2380 C.2    52  LYS52       0.2260
     40  O         -4.7700   22.7410   58.1160 O.2    52  LYS52      -0.2867
     41  CB        -2.0330   21.7130   58.5470 C.3    52  LYS52       0.0271
     42  CG        -1.3520   23.0480   58.7740 C.3    52  LYS52       0.0035
     43  CD        -0.1520   23.1870   57.8710 C.3    52  LYS52       0.0206
     44  CE         1.0370   22.3850   58.3500 C.3    52  LYS52       0.1093
     45  NZ         2.0070   22.1610   57.2390 N.3    52  LYS52      -0.1314
     46  N         -5.9500   23.9000   47.8880 N.3    92  TRP92      -0.1227
     47  CA        -5.2570   22.8230   48.6160 C.3    92  TRP92       0.1737
     48  C         -5.5840   21.4060   48.1380 C.2    92  TRP92       0.2595
     49  O         -4.8400   20.4550   48.4500 O.2    92  TRP92      -0.2718
     50  CB        -5.5370   22.9180   50.1140 C.3    92  TRP92       0.0564
     51  CG        -6.9730   23.0490   50.4940 C.ar   92  TRP92       0.0003
     52  CD1       -7.6680   24.2030   50.6660 C.ar   92  TRP92       0.0946
     53  CD2       -7.8740   21.9890   50.8050 C.ar   92  TRP92       0.0152
     54  NE1       -8.9670   23.9330   51.0370 N.ar   92  TRP92      -0.2442
     55  CE2       -9.1200   22.5790   51.1330 C.ar   92  TRP92       0.0810
     56  CE3       -7.7630   20.5920   50.8170 C.ar   92  TRP92       0.0012
     57  CZ2      -10.2440   21.8230   51.4770 C.ar   92  TRP92       0.0191
     58  CZ3       -8.8840   19.8360   51.1730 C.ar   92  TRP92       0.0001
     59  CH2      -10.1030   20.4560   51.4880 C.ar   92  TRP92       0.0015
     60  N         -6.6830   21.2570   47.3990 N.am   93  ARG93      -0.1966
     61  CA        -7.1460   19.9260   46.9330 C.3    93  ARG93       0.1729
     62  C         -6.3700   19.3810   45.7610 C.2    93  ARG93       0.2616
     63  O         -6.1550   18.1720   45.6810 O.2    93  ARG93      -0.2715
     64  CB        -8.6180   19.9580   46.5180 C.3    93  ARG93       0.0348
     65  CG        -9.5530   20.2990   47.6360 C.3    93  ARG93       0.0492
     66  CD       -10.9690   20.4570   47.1310 C.3    93  ARG93       0.2205
     67  NE       -11.8800   20.3910   48.2560 N.pl3  93  ARG93      -0.0865
     68  CZ       -12.2900   19.2510   48.8160 C.cat  93  ARG93       0.5346
     69  NH1      -11.9030   18.0680   48.3250 N.pl3  93  ARG93       0.1354
     70  NH2      -13.0950   19.2960   49.8680 N.pl3  93  ARG93       0.1354
     71  N         -5.9620   20.2580   44.8520 N.am   94  GLU94      -0.1963
     72  CA        -5.3020   19.8340   43.6200 C.3    94  GLU94       0.1733
     73  C         -3.7980   20.1360   43.5460 C.2    94  GLU94       0.2616
     74  O         -2.9840   19.2180   43.4680 O.2    94  GLU94      -0.2715
     75  CB        -5.9940   20.4720   42.4170 C.3    94  GLU94       0.0429
     76  CG        -5.4870   19.8880   41.0840 C.3    94  GLU94       0.1163
     77  CD        -5.9710   20.6330   39.8500 C.2    94  GLU94       0.3649
     78  OE1       -6.8450   21.5300   39.9600 O.co2  94  GLU94      -0.2457
     79  OE2       -5.4510   20.3120   38.7590 O.co2  94  GLU94      -0.2457
     80  N         -3.4310   21.4200   43.5240 N.am   95  ASN95      -0.1958
     81  CA        -2.0670   21.8130   43.1200 C.3    95  ASN95       0.1819
     82  C         -1.4750   23.0160   43.8370 C.2    95  ASN95       0.2621
     83  O         -0.4930   23.5530   43.3680 O.2    95  ASN95      -0.2715
     84  CB        -2.0420   22.0730   41.6060 C.3    95  ASN95       0.1195
     85  CG        -3.0560   23.1380   41.1710 C.2    95  ASN95       0.2630
     86  OD1       -3.7920   23.6990   41.9890 O.2    95  ASN95      -0.2716
     87  ND2       -3.1030   23.4000   39.8750 N.am   95  ASN95      -0.0877
     88  N         -2.0700   23.4300   44.9560 N.am   96  LEU96      -0.1977
     89  CA        -1.6660   24.6490   45.6860 C.3    96  LEU96       0.1596
     90  C         -1.7130   25.9250   44.8330 C.2    96  LEU96       0.2287
     91  O         -0.9370   26.8540   45.0610 O.2    96  LEU96      -0.2864
     92  CB        -0.2670   24.5060   46.3100 C.3    96  LEU96       0.0297
     93  CG        -0.0400   23.2940   47.2020 C.3    96  LEU96       0.0022
     94  CD1        1.4650   23.1210   47.5370 C.3    96  LEU96       0.0001
     95  CD2       -0.8950   23.4050   48.4450 C.3    96  LEU96       0.0001
     96  N          1.9690   17.5000   37.8940 N.3   171  ILE171     -0.1245
     97  CA         1.0870   18.4810   38.4940 C.3   171  ILE171      0.1561
     98  C          0.6790   19.5030   37.4500 C.2   171  ILE171      0.2260
     99  O          1.5200   19.9800   36.6730 O.2   171  ILE171     -0.2867
    100  CB         1.7650   19.2290   39.6920 C.3   171  ILE171      0.0252
    101  CG1        2.2340   18.2390   40.7720 C.3   171  ILE171      0.0019
    102  CG2        0.8040   20.2050   40.3430 C.3   171  ILE171      0.0019
    103  CD1        1.1570   17.2250   41.1790 C.3   171  ILE171      0.0001
    104  N         18.0590   24.5820   45.6790 N.3   191  ASP191     -0.1225
    105  CA        16.6300   24.4870   45.7380 C.3   191  ASP191      0.1805
    106  C         16.2320   24.8710   47.1460 C.2   191  ASP191      0.2598
    107  O         17.0730   24.8620   48.0500 O.2   191  ASP191     -0.2718
    108  CB        16.1810   23.0480   45.4370 C.3   191  ASP191      0.1424
    109  CG        14.6860   22.9300   45.1640 C.2   191  ASP191      0.3668
    110  OD1       13.9960   23.9690   44.9970 O.co2 191  ASP191     -0.2456
    111  OD2       14.2150   21.7700   45.0750 O.co2 191  ASP191     -0.2456
    112  N         14.9620   25.2310   47.3060 N.am  192  ALA192     -0.1966
    113  CA        14.3280   25.2650   48.5980 C.3   192  ALA192      0.1728
    114  C         14.0980   23.8290   49.0670 C.2   192  ALA192      0.2616
    115  O         14.3280   22.8900   48.3320 O.2   192  ALA192     -0.2715
    116  CB        13.0050   26.0310   48.5190 C.3   192  ALA192      0.0334
    117  N         13.6760   23.6670   50.3080 N.am  193  CYS193     -0.1954
    118  CA        13.3010   22.3480   50.8210 C.3   193  CYS193      0.1843
    119  C         12.3490   22.5130   52.0110 C.2   193  CYS193      0.2625
    120  O         11.9360   23.6260   52.3100 O.2   193  CYS193     -0.2714
    121  CB        14.5390   21.5620   51.2130 C.3   193  CYS193      0.0997
    122  SG        14.2790   19.7540   51.3430 S.3   193  CYS193     -0.0797
    123  N         11.9980   21.4160   52.6810 N.am  194  GLU194     -0.1977
    124  CA        10.9740   21.4400   53.7190 C.3   194  GLU194      0.1602
    125  C         11.3720   22.4110   54.8270 C.2   194  GLU194      0.2287
    126  O         12.5280   22.4180   55.2530 O.2   194  GLU194     -0.2864
    127  CB        10.7740   20.0380   54.3070 C.3   194  GLU194      0.0415
    128  CG         9.5950   19.9150   55.2560 C.3   194  GLU194      0.1163
    129  CD         9.7560   18.7850   56.2720 C.2   194  GLU194      0.3649
    130  OE1       10.2920   17.7060   55.9180 O.co2 194  GLU194     -0.2457
    131  OE2        9.3410   18.9870   57.4380 O.co2 194  GLU194     -0.2457
    132  N          9.1720   26.7590   52.9180 N.3   197  SER197     -0.1217
    133  CA         7.9100   27.2270   52.3360 C.3   197  SER197      0.1889
    134  C          7.4260   28.4870   53.0140 C.2   197  SER197      0.2288
    135  O          7.6060   28.6560   54.2180 O.2   197  SER197     -0.2866
    136  CB         6.7970   26.1820   52.5010 C.3   197  SER197      0.2089
    137  OG         6.9780   25.0890   51.6600 O.3   197  SER197     -0.2183
    138  N          7.8280   30.6960   48.3430 N.3   217  VAL217     -0.1231
    139  CA         8.2180   29.2950   48.2650 C.3   217  VAL217      0.1692
    140  C          6.9560   28.5150   48.4960 C.2   217  VAL217      0.2593
    141  O          6.3270   28.6620   49.5460 O.2   217  VAL217     -0.2718
    142  CB         9.2950   28.9150   49.3380 C.3   217  VAL217      0.0266
    143  CG1        9.7900   27.4640   49.1510 C.3   217  VAL217      0.0020
    144  CG2       10.4610   29.8610   49.2930 C.3   217  VAL217      0.0020
    145  N          6.5730   27.7150   47.5040 N.am  218  SER218     -0.1938
    146  CA         5.2930   27.0170   47.5040 C.3   218  SER218      0.2055
    147  C          5.4350   25.4930   47.5170 C.2   218  SER218      0.2643
    148  O          5.0260   24.8500   48.4650 O.2   218  SER218     -0.2714
    149  CB         4.4380   27.4760   46.3160 C.3   218  SER218      0.2130
    150  OG         3.1180   26.9590   46.3950 O.3   218  SER218     -0.2179
    151  N          6.0030   24.8970   46.4810 N.am  219  TRP219     -0.1959
    152  CA         6.1910   23.4430   46.4980 C.3   219  TRP219      0.1771
    153  C          7.2530   22.9250   45.5490 C.2   219  TRP219      0.2620
    154  O          7.6240   23.5570   44.5620 O.2   219  TRP219     -0.2715
    155  CB         4.8630   22.7210   46.1640 C.3   219  TRP219      0.0590
    156  CG         4.2720   23.0710   44.8220 C.ar  219  TRP219      0.0006
    157  CD1        3.4810   24.1460   44.5370 C.ar  219  TRP219      0.0946
    158  CD2        4.3980   22.3380   43.5940 C.ar  219  TRP219      0.0152
    159  NE1        3.1390   24.1450   43.2110 N.ar  219  TRP219     -0.2442
    160  CE2        3.6770   23.0400   42.6130 C.ar  219  TRP219      0.0810
    161  CE3        5.0510   21.1540   43.2280 C.ar  219  TRP219      0.0012
    162  CZ2        3.5710   22.5850   41.2930 C.ar  219  TRP219      0.0191
    163  CZ3        4.9680   20.7210   41.9100 C.ar  219  TRP219      0.0001
    164  CH2        4.2340   21.4270   40.9660 C.ar  219  TRP219      0.0015
    165  N          7.7180   21.7290   45.8690 N.am  220  GLY220     -0.1940
    166  CA         8.5020   20.9240   44.9590 C.3   220  GLY220      0.2014
    167  C          8.2890   19.4640   45.2960 C.2   220  GLY220      0.2639
    168  O          7.7840   19.1330   46.3620 O.2   220  GLY220     -0.2714
    169  N          8.6970   18.6120   44.3760 N.am  221  GLU221     -0.1963
    170  CA         8.7100   17.1720   44.5420 C.3   221  GLU221      0.1733
    171  C         10.1450   16.7290   44.8430 C.2   221  GLU221      0.2617
    172  O         11.0170   16.6500   43.9600 O.2   221  GLU221     -0.2715
    173  CB         8.1510   16.5180   43.2910 C.3   221  GLU221      0.0429
    174  CG         6.6970   16.9530   43.0190 C.3   221  GLU221      0.1163
    175  CD         6.2080   16.6620   41.5880 C.2   221  GLU221      0.3649
    176  OE1        6.6130   17.3590   40.6310 O.co2 221  GLU221     -0.2457
    177  OE2        5.3670   15.7570   41.4430 O.co2 221  GLU221     -0.2457
    178  N         10.3740   16.4720   46.1200 N.am  222  GLY222     -0.1940
    179  CA        11.7140   16.3670   46.6600 C.3   222  GLY222      0.2014
    180  C         12.3400   17.7440   46.7270 C.2   222  GLY222      0.2639
    181  O         11.6470   18.7680   46.6360 O.2   222  GLY222     -0.2714
    182  N         13.6500   17.7490   46.9040 N.am  223  CYS223     -0.1967
    183  CA        14.4440   18.9530   47.0150 C.3   223  CYS223      0.1712
    184  C         15.7050   18.7140   46.2170 C.2   223  CYS223      0.2296
    185  O         16.3290   17.6650   46.3450 O.2   223  CYS223     -0.2864
    186  CB        14.8150   19.2300   48.4580 C.3   223  CYS223      0.0983
    187  SG        13.4480   19.2720   49.5610 S.3   223  CYS223     -0.0798
    188  N         11.7260   23.9490   41.8140 N.3   230  GLY230     -0.1210
    189  CA        10.8530   24.4620   42.8670 C.3   230  GLY230      0.1956
    190  C          9.7920   25.3630   42.2740 C.2   230  GLY230      0.2612
    191  O         10.0530   26.1150   41.2980 O.2   230  GLY230     -0.2717
    192  N          8.6110   25.3280   42.8790 N.am  231  PHE231     -0.1962
    193  CA         7.5030   26.1290   42.4070 C.3   231  PHE231      0.1771
    194  C          7.1820   27.2070   43.3990 C.2   231  PHE231      0.2619
    195  O          7.1650   26.9750   44.6230 O.2   231  PHE231     -0.2715
    196  CB         6.2960   25.2620   42.0650 C.3   231  PHE231      0.0574
    197  CG         6.4300   24.5730   40.7580 C.ar  231  PHE231     -0.0200
    198  CD1        7.2540   23.4590   40.6300 C.ar  231  PHE231     -0.0042
    199  CD2        5.7870   25.0600   39.6310 C.ar  231  PHE231     -0.0042
    200  CE1        7.4300   22.8370   39.4030 C.ar  231  PHE231     -0.0003
    201  CE2        5.9550   24.4390   38.3980 C.ar  231  PHE231     -0.0003
    202  CZ         6.7890   23.3310   38.2860 C.ar  231  PHE231     -0.0000
    203  N          6.9420   28.4050   42.8540 N.am  232  TYR232     -0.1974
    204  CA         6.7610   29.6130   43.6460 C.3   232  TYR232      0.1639
    205  C          5.4390   30.2670   43.3290 C.2   232  TYR232      0.2290
    206  O          5.0500   30.3500   42.1620 O.2   232  TYR232     -0.2864
    207  CB         7.9190   30.6060   43.3780 C.3   232  TYR232      0.0560
    208  CG         9.2500   30.0100   43.7740 C.ar  232  TYR232     -0.0198
    209  CD1        9.9260   29.1340   42.9190 C.ar  232  TYR232     -0.0009
    210  CD2        9.7980   30.2540   45.0260 C.ar  232  TYR232     -0.0009
    211  CE1       11.1310   28.5400   43.2970 C.ar  232  TYR232      0.0417
    212  CE2       11.0060   29.6600   45.4050 C.ar  232  TYR232      0.0417
    213  CZ        11.6550   28.7920   44.5390 C.ar  232  TYR232      0.1957
    214  OH        12.8480   28.1930   44.9240 O.3   232  TYR232     -0.2866
@<TRIPOS>BOND
     1    99    98    2
     2    98    97    1
     3    96    97    1
     4   202   201   ar
     5   202   200   ar
     6   201   199   ar
     7    97   100    1
     8    79    77   ar
     9   200   198   ar
    10   199   197   ar
    11   100   102    1
    12   100   101    1
    13    77    78   ar
    14    77    76    1
    15    87    85   am
    16   198   197   ar
    17   176   175   ar
    18   197   196    1
    19   101   103    1
    20   164   162   ar
    21   164   163   ar
    22    76    75    1
    23    85    84    1
    24    85    86    2
    25   162   160   ar
    26   191   190    2
    27   177   175   ar
    28   175   174    1
    29    84    81    1
    30   188   189    1
    31   163   161   ar
    32   196   193    1
    33   206   205    2
    34   190   189    1
    35   190   192   am
    36   193   192    1
    37   193   194    1
    38    75    72    1
    39   160   159   ar
    40   160   158   ar
    41   203   194   am
    42   203   204    1
    43   209   211   ar
    44   209   208   ar
    45   174   173    1
    46    81    80    1
    47    81    82    1
    48   159   157   ar
    49   161   158   ar
    50   173   170    1
    51   211   213   ar
    52   205   204    1
    53    83    82    2
    54   207   204    1
    55   207   208    1
    56   194   195    2
    57    74    73    2
    58    80    73   am
    59    73    72    1
    60   158   156   ar
    61    72    71    1
    62   208   210   ar
    63    82    88   am
    64   172   171    2
    65   169   170    1
    66   169   167   am
    67   157   156   ar
    68   213   214    1
    69   213   212   ar
    70   170   171    1
    71   154   153    2
    72   156   155    1
    73    90    91    2
    74    90    89    1
    75   171   178   am
    76    71    62   am
    77    88    89    1
    78   166   167    1
    79   166   165    1
    80   110   109   ar
    81   210   212   ar
    82   111   109   ar
    83   109   108    1
    84   167   168    2
    85   108   105    1
    86   153   165   am
    87   153   152    1
    88   104   105    1
    89    63    62    2
    90    89    92    1
    91   105   106    1
    92    62    61    1
    93   178   179    1
    94   155   152    1
    95   184   185    2
    96   184   183    1
    97    92    93    1
    98   149   150    1
    99   149   146    1
   100   151   152    1
   101   151   147   am
   102    64    61    1
   103    64    65    1
   104   181   180    2
   105   179   180    1
   106   180   182   am
   107   182   183    1
   108    61    60    1
   109   183   186    1
   110    66    65    1
   111    66    67    1
   112   106   112   am
   113   106   107    2
   114    93    94    1
   115    93    95    1
   116   112   113    1
   117    60    48   am
   118   146   145    1
   119   146   147    1
   120   145   140   am
   121   147   148    2
   122    46    47    1
   123    48    49    2
   124    48    47    1
   125    67    68    2
   126   139   138    1
   127   139   140    1
   128   139   142    1
   129    69    68    1
   130   115   114    2
   131   186   187    1
   132   140   141    2
   133   116   113    1
   134   113   114    1
   135    47    50    1
   136    68    70    1
   137   114   117   am
   138   143   142    1
   139   144   142    1
   140   187   122    1
   141    50    51    1
   142    22    21    1
   143   117   118    1
   144    51    52   ar
   145    51    53   ar
   146    52    54   ar
   147    53    56   ar
   148    53    55   ar
   149    56    58   ar
   150   118   121    1
   151   118   119    1
   152     7     9   ar
   153     7     6   ar
   154    19    21   ar
   155    19    17   ar
   156    54    55   ar
   157     9    10   ar
   158    55    57   ar
   159    58    59   ar
   160    21    20   ar
   161   121   122    1
   162    57    59   ar
   163   137   136    1
   164     6     5    1
   165     6     8   ar
   166     5     2    1
   167    17    16   ar
   168   119   120    2
   169   119   123   am
   170    10     8   ar
   171   133   136    1
   172   133   132    1
   173   133   134    1
   174    20    18   ar
   175     1     2    1
   176   123   124    1
   177    34    36   ar
   178    34    32   ar
   179     2     3    1
   180   134   135    2
   181    36    35   ar
   182    16    18   ar
   183    16    15    1
   184    31    32   ar
   185    31    29   ar
   186   124   127    1
   187   124   125    1
   188    32    30   ar
   189     3     4    2
   190   127   128    1
   191    35    33   ar
   192    15    12    1
   193    12    13    1
   194    12    11    1
   195    29    28   ar
   196   125   126    2
   197    30    33   ar
   198    30    28   ar
   199    13    14    2
   200   128   129    1
   201    28    27    1
   202    23    24    1
   203   130   129   ar
   204   129   131   ar
   205    27    24    1
   206    24    25    1
   207    45    44    1
   208    43    44    1
   209    43    42    1
   210    40    39    2
   211    25    26    2
   212    41    42    1
   213    41    38    1
   214    37    38    1
   215    39    38    1
