@<TRIPOS>MOLECULE
tmp/2c8yB01.pdb
 165 164 0 0 0
SMALL
GASTEIGER

@<TRIPOS>ATOM
      1  N         -0.5030   27.1330   52.8780 N.3    43  HIS43      -0.1241
      2  CA        -0.3240   25.7880   53.4080 C.3    43  HIS43       0.1621
      3  C          0.4900   25.7080   54.7130 C.2    43  HIS43       0.2264
      4  O          0.5220   24.6630   55.3650 O.2    43  HIS43      -0.2867
      5  CB         0.2700   24.8700   52.3520 C.3    43  HIS43       0.0745
      6  CG         1.7450   24.9850   52.2110 C.ar   43  HIS43       0.0817
      7  ND1        2.3380   25.6600   51.1680 N.ar   43  HIS43      -0.2268
      8  CD2        2.7510   24.4760   52.9560 C.ar   43  HIS43       0.1154
      9  CE1        3.6530   25.5800   51.2940 C.ar   43  HIS43       0.1986
     10  NE2        3.9330   24.8670   52.3710 N.ar   43  HIS43      -0.2212
     11  N         -3.7140   23.0900   55.8260 N.3    47  TYR47      -0.1241
     12  CA        -3.5870   21.9780   54.9190 C.3    47  TYR47       0.1605
     13  C         -4.3160   20.7720   55.5280 C.2    47  TYR47       0.2264
     14  O         -3.6930   19.9500   56.2240 O.2    47  TYR47      -0.2867
     15  CB        -2.1240   21.6380   54.6590 C.3    47  TYR47       0.0534
     16  CG        -1.9820   20.6120   53.5730 C.ar   47  TYR47      -0.0201
     17  CD1       -2.5700   20.8160   52.3360 C.ar   47  TYR47      -0.0009
     18  CD2       -1.2700   19.4430   53.7740 C.ar   47  TYR47      -0.0009
     19  CE1       -2.4670   19.8900   51.3390 C.ar   47  TYR47       0.0417
     20  CE2       -1.1590   18.5020   52.7630 C.ar   47  TYR47       0.0417
     21  CZ        -1.7580   18.7360   51.5540 C.ar   47  TYR47       0.1957
     22  OH        -1.6540   17.8220   50.5440 O.3    47  TYR47      -0.2866
     23  N         -3.3110   16.8710   56.0890 N.3    50  TRP50      -0.1241
     24  CA        -2.3400   16.5650   57.1510 C.3    50  TRP50       0.1605
     25  C         -2.8230   17.1050   58.4920 C.2    50  TRP50       0.2264
     26  O         -2.0350   17.3110   59.4120 O.2    50  TRP50      -0.2867
     27  CB        -0.9710   17.1520   56.8080 C.3    50  TRP50       0.0550
     28  CG        -0.3010   16.5030   55.5960 C.ar   50  TRP50       0.0003
     29  CD1       -0.7430   15.4210   54.8920 C.ar   50  TRP50       0.0946
     30  CD2        0.9460   16.8840   54.9970 C.ar   50  TRP50       0.0152
     31  NE1        0.1350   15.1230   53.8750 N.ar   50  TRP50      -0.2442
     32  CE2        1.1850   15.9990   53.9250 C.ar   50  TRP50       0.0810
     33  CE3        1.8740   17.8950   55.2540 C.ar   50  TRP50       0.0012
     34  CZ2        2.3170   16.0970   53.1050 C.ar   50  TRP50       0.0191
     35  CZ3        2.9960   17.9940   54.4410 C.ar   50  TRP50       0.0001
     36  CH2        3.2090   17.0990   53.3810 C.ar   50  TRP50       0.0015
     37  N         -3.6650   20.0130   59.3580 N.3    52  LYS52      -0.1245
     38  CA        -3.0690   21.3060   59.7100 C.3    52  LYS52       0.1561
     39  C         -4.1050   22.4100   59.5830 C.2    52  LYS52       0.2260
     40  O         -4.7250   22.5830   58.5280 O.2    52  LYS52      -0.2867
     41  CB        -1.8670   21.6230   58.8230 C.3    52  LYS52       0.0271
     42  CG        -1.1430   22.9000   59.2270 C.3    52  LYS52       0.0035
     43  CD        -0.0090   23.2370   58.3080 C.3    52  LYS52       0.0206
     44  CE         1.0730   22.2170   58.3380 C.3    52  LYS52       0.1093
     45  NZ         2.3190   22.7710   57.7610 N.3    52  LYS52      -0.1314
     46  N         -6.0010   23.8380   48.1470 N.3    92  TRP92      -0.1227
     47  CA        -5.3010   22.7540   48.8280 C.3    92  TRP92       0.1737
     48  C         -5.6870   21.3640   48.3780 C.2    92  TRP92       0.2595
     49  O         -4.9900   20.4130   48.7170 O.2    92  TRP92      -0.2718
     50  CB        -5.4870   22.8480   50.3390 C.3    92  TRP92       0.0564
     51  CG        -6.8700   22.9120   50.7850 C.ar   92  TRP92       0.0003
     52  CD1       -7.5830   24.0340   51.0740 C.ar   92  TRP92       0.0946
     53  CD2       -7.7330   21.8050   51.0510 C.ar   92  TRP92       0.0152
     54  NE1       -8.8500   23.6970   51.4990 N.ar   92  TRP92      -0.2442
     55  CE2       -8.9660   22.3350   51.4970 C.ar   92  TRP92       0.0810
     56  CE3       -7.5880   20.4120   50.9540 C.ar   92  TRP92       0.0012
     57  CZ2      -10.0470   21.5290   51.8200 C.ar   92  TRP92       0.0191
     58  CZ3       -8.6590   19.6170   51.2960 C.ar   92  TRP92       0.0001
     59  CH2       -9.8790   20.1780   51.7170 C.ar   92  TRP92       0.0015
     60  N         -6.7950   21.2380   47.6440 N.am   93  ARG93      -0.1966
     61  CA        -7.2810   19.9320   47.1640 C.3    93  ARG93       0.1729
     62  C         -6.5330   19.4470   45.9650 C.2    93  ARG93       0.2616
     63  O         -6.3610   18.2440   45.8050 O.2    93  ARG93      -0.2715
     64  CB        -8.7600   19.9940   46.8000 C.3    93  ARG93       0.0348
     65  CG        -9.6450   20.2140   47.9900 C.3    93  ARG93       0.0492
     66  CD       -11.0870   20.4190   47.5930 C.3    93  ARG93       0.2205
     67  NE       -11.9410   20.3080   48.7650 N.pl3  93  ARG93      -0.0865
     68  CZ       -12.2690   19.1510   49.3460 C.cat  93  ARG93       0.5346
     69  NH1      -11.8350   17.9780   48.8600 N.pl3  93  ARG93       0.1354
     70  NH2      -13.0450   19.1710   50.4200 N.pl3  93  ARG93       0.1354
     71  N         -6.0730   20.3640   45.1250 N.am   94  GLU94      -0.1963
     72  CA        -5.4830   19.9890   43.8520 C.3    94  GLU94       0.1733
     73  C         -3.9800   20.2890   43.7210 C.2    94  GLU94       0.2616
     74  O         -3.1740   19.3620   43.6660 O.2    94  GLU94      -0.2715
     75  CB        -6.2570   20.6720   42.7310 C.3    94  GLU94       0.0429
     76  CG        -6.0650   20.0290   41.3860 C.3    94  GLU94       0.1163
     77  CD        -6.6510   20.8590   40.2500 C.2    94  GLU94       0.3649
     78  OE1       -7.7330   21.4740   40.4420 O.co2  94  GLU94      -0.2457
     79  OE2       -6.0220   20.8820   39.1670 O.co2  94  GLU94      -0.2457
     80  N         -3.5990   21.5680   43.6550 N.am   95  ASN95      -0.1958
     81  CA        -2.2500   21.9430   43.1640 C.3    95  ASN95       0.1819
     82  C         -1.5950   23.1130   43.9160 C.2    95  ASN95       0.2621
     83  O         -0.6040   23.6790   43.4450 O.2    95  ASN95      -0.2715
     84  CB        -2.3350   22.2630   41.6590 C.3    95  ASN95       0.1195
     85  CG        -3.3300   23.3890   41.3480 C.2    95  ASN95       0.2630
     86  OD1       -4.0000   23.8840   42.2360 O.2    95  ASN95      -0.2716
     87  ND2       -3.4220   23.7850   40.0900 N.am   95  ASN95      -0.0877
     88  N         -2.1370   23.4540   45.0880 N.am   96  LEU96      -0.1977
     89  CA        -1.7420   24.6540   45.8560 C.3    96  LEU96       0.1596
     90  C         -1.7990   25.9530   45.0500 C.2    96  LEU96       0.2287
     91  O         -1.0410   26.8960   45.3050 O.2    96  LEU96      -0.2864
     92  CB        -0.3550   24.5180   46.5370 C.3    96  LEU96       0.0297
     93  CG        -0.1520   23.6110   47.7530 C.3    96  LEU96       0.0022
     94  CD1        1.2150   23.8960   48.4060 C.3    96  LEU96       0.0001
     95  CD2       -1.2580   23.7080   48.7820 C.3    96  LEU96       0.0001
     96  N          1.7480   17.4850   38.3280 N.3   171  ILE171     -0.1245
     97  CA         0.8470   18.4620   38.9240 C.3   171  ILE171      0.1561
     98  C          0.4930   19.5130   37.8850 C.2   171  ILE171      0.2260
     99  O          1.3490   19.9110   37.0680 O.2   171  ILE171     -0.2867
    100  CB         1.4660   19.1280   40.1950 C.3   171  ILE171      0.0252
    101  CG1        1.6210   18.0950   41.3230 C.3   171  ILE171      0.0019
    102  CG2        0.6130   20.2820   40.7050 C.3   171  ILE171      0.0019
    103  CD1        0.3180   17.5660   41.8450 C.3   171  ILE171      0.0001
    104  N         13.7970   23.6280   50.9320 N.3   193  CYS193     -0.1221
    105  CA        13.4240   22.3020   51.4320 C.3   193  CYS193      0.1808
    106  C         12.5020   22.4790   52.6400 C.2   193  CYS193      0.2601
    107  O         12.1230   23.6010   52.9630 O.2   193  CYS193     -0.2717
    108  CB        14.6730   21.4770   51.7760 C.3   193  CYS193      0.0970
    109  SG        14.4570   19.6350   51.8890 S.3   193  CYS193     -0.0800
    110  N         12.1550   21.3710   53.2960 N.am  194  GLU194     -0.1965
    111  CA        11.1510   21.3380   54.3850 C.3   194  GLU194      0.1733
    112  C         11.4760   22.3880   55.4430 C.2   194  GLU194      0.2616
    113  O         12.5840   22.4370   55.9300 O.2   194  GLU194     -0.2715
    114  CB        11.1190   19.9250   55.0170 C.3   194  GLU194      0.0429
    115  CG         9.9840   19.6280   55.9930 C.3   194  GLU194      0.1163
    116  CD        10.0500   18.1930   56.5570 C.2   194  GLU194      0.3649
    117  OE1        9.9650   17.2210   55.7700 O.co2 194  GLU194     -0.2457
    118  OE2       10.1910   18.0300   57.7880 O.co2 194  GLU194     -0.2457
    119  N         10.5120   23.2210   55.8010 N.am  195  GLY195     -0.1955
    120  CA        10.7320   24.2970   56.7910 C.3   195  GLY195      0.1869
    121  C         10.9880   25.6620   56.1710 C.2   195  GLY195      0.2309
    122  O         10.9450   26.6570   56.8680 O.2   195  GLY195     -0.2863
    123  N          9.1790   26.7240   53.4540 N.3   197  SER197     -0.1217
    124  CA         7.9250   27.1750   52.8260 C.3   197  SER197      0.1889
    125  C          7.4040   28.3970   53.5400 C.2   197  SER197      0.2288
    126  O          7.6040   28.5290   54.7350 O.2   197  SER197     -0.2866
    127  CB         6.8430   26.0940   52.8480 C.3   197  SER197      0.2089
    128  OG         7.1990   24.9710   52.0480 O.3   197  SER197     -0.2183
    129  N          6.5650   27.6870   47.7950 N.3   218  SER218     -0.1202
    130  CA         5.2490   27.0080   47.8250 C.3   218  SER218      0.2020
    131  C          5.3460   25.4970   47.9220 C.2   218  SER218      0.2619
    132  O          4.8560   24.8970   48.8740 O.2   218  SER218     -0.2717
    133  CB         4.4340   27.3810   46.5970 C.3   218  SER218      0.2103
    134  OG         3.0670   27.0500   46.7600 O.3   218  SER218     -0.2182
    135  N          5.9620   24.8600   46.9390 N.am  219  TRP219     -0.1961
    136  CA         6.0360   23.4030   46.9590 C.3   219  TRP219      0.1771
    137  C          7.0720   22.8580   46.0140 C.2   219  TRP219      0.2620
    138  O          7.4920   23.5240   45.0610 O.2   219  TRP219     -0.2715
    139  CB         4.6780   22.7690   46.5980 C.3   219  TRP219      0.0590
    140  CG         4.1330   23.0890   45.2180 C.ar  219  TRP219      0.0006
    141  CD1        3.3910   24.1720   44.8750 C.ar  219  TRP219      0.0946
    142  CD2        4.2630   22.3060   44.0220 C.ar  219  TRP219      0.0152
    143  NE1        3.0830   24.1400   43.5510 N.ar  219  TRP219     -0.2442
    144  CE2        3.5980   23.0030   42.9970 C.ar  219  TRP219      0.0810
    145  CE3        4.9070   21.1010   43.7080 C.ar  219  TRP219      0.0012
    146  CZ2        3.5300   22.5210   41.6750 C.ar  219  TRP219      0.0191
    147  CZ3        4.8550   20.6330   42.4060 C.ar  219  TRP219      0.0001
    148  CH2        4.1670   21.3430   41.4040 C.ar  219  TRP219      0.0015
    149  N          7.4540   21.6190   46.2840 N.am  220  GLY220     -0.1940
    150  CA         8.2680   20.8260   45.3550 C.3   220  GLY220      0.2014
    151  C          8.0420   19.3450   45.5980 C.2   220  GLY220      0.2639
    152  O          7.3200   18.9530   46.5150 O.2   220  GLY220     -0.2714
    153  N          8.6700   18.5280   44.7750 N.am  221  GLU221     -0.1963
    154  CA         8.5910   17.0840   44.8840 C.3   221  GLU221      0.1733
    155  C         10.0120   16.6130   45.1920 C.2   221  GLU221      0.2616
    156  O         10.8330   16.4920   44.2880 O.2   221  GLU221     -0.2715
    157  CB         8.0490   16.5310   43.5680 C.3   221  GLU221      0.0429
    158  CG         6.6440   17.0650   43.2750 C.3   221  GLU221      0.1163
    159  CD         6.1480   16.8470   41.8500 C.2   221  GLU221      0.3649
    160  OE1        6.7350   17.3960   40.8870 O.co2 221  GLU221     -0.2457
    161  OE2        5.1190   16.1570   41.7140 O.co2 221  GLU221     -0.2457
    162  N         10.2940   16.4170   46.4840 N.am  222  GLY222     -0.1955
    163  CA        11.6600   16.2720   46.9890 C.3   222  GLY222      0.1869
    164  C         12.3800   17.6130   47.0670 C.2   222  GLY222      0.2309
    165  O         11.7930   18.6420   46.7680 O.2   222  GLY222     -0.2863
@<TRIPOS>BOND
     1    99    98    2
     2    98    97    1
     3    96    97    1
     4    97   100    1
     5    79    77   ar
     6    87    85   am
     7   100   102    1
     8   100   101    1
     9    77    78   ar
    10    77    76    1
    11   160   159   ar
    12   101   103    1
    13    85    84    1
    14    85    86    2
    15    76    75    1
    16   148   146   ar
    17   148   147   ar
    18    84    81    1
    19   146   144   ar
    20   161   159   ar
    21   159   158    1
    22   147   145   ar
    23    75    72    1
    24   144   143   ar
    25   144   142   ar
    26    81    80    1
    27    81    82    1
    28   158   157    1
    29    83    82    2
    30   143   141   ar
    31   157   154    1
    32    80    73   am
    33    74    73    2
    34   145   142   ar
    35    73    72    1
    36    72    71    1
    37    82    88   am
    38   142   140   ar
    39   156   155    2
    40   153   154    1
    41   153   151   am
    42   141   140   ar
    43   154   155    1
    44    90    91    2
    45    90    89    1
    46   138   137    2
    47    88    89    1
    48    71    62   am
    49   155   162   am
    50   140   139    1
    51   150   151    1
    52   150   149    1
    53   151   152    2
    54    63    62    2
    55    89    92    1
    56    62    61    1
    57   137   149   am
    58   137   136    1
    59   162   163    1
    60    92    93    1
    61   133   134    1
    62   133   130    1
    63   139   136    1
    64   165   164    2
    65    64    61    1
    66    64    65    1
    67   135   136    1
    68   135   131   am
    69   163   164    1
    70    61    60    1
    71    66    65    1
    72    66    67    1
    73    60    48   am
    74    93    94    1
    75    93    95    1
    76   129   130    1
    77   130   131    1
    78   131   132    2
    79    46    47    1
    80    48    49    2
    81    48    47    1
    82    67    68    2
    83    47    50    1
    84    69    68    1
    85    68    70    1
    86    50    51    1
    87    22    21    1
    88    51    53   ar
    89    51    52   ar
    90   104   105    1
    91    56    53   ar
    92    56    58   ar
    93    53    55   ar
    94    52    54   ar
    95     7     9   ar
    96     7     6   ar
    97     9    10   ar
    98    58    59   ar
    99    19    21   ar
   100    19    17   ar
   101   105   108    1
   102   105   106    1
   103    55    54   ar
   104    55    57   ar
   105    21    20   ar
   106    59    57   ar
   107   108   109    1
   108   128   127    1
   109     6     5    1
   110     6     8   ar
   111    17    16   ar
   112     5     2    1
   113    10     8   ar
   114   106   107    2
   115   106   110   am
   116    20    18   ar
   117   124   127    1
   118   124   123    1
   119   124   125    1
   120     1     2    1
   121    34    36   ar
   122    34    32   ar
   123   110   111    1
   124    36    35   ar
   125     2     3    1
   126   125   126    2
   127    16    18   ar
   128    16    15    1
   129    31    32   ar
   130    31    29   ar
   131    32    30   ar
   132   111   114    1
   133   111   112    1
   134    35    33   ar
   135    15    12    1
   136     3     4    2
   137    29    28   ar
   138    12    13    1
   139    12    11    1
   140    30    33   ar
   141    30    28   ar
   142   114   115    1
   143   112   119   am
   144   112   113    2
   145    13    14    2
   146    28    27    1
   147   117   116   ar
   148   119   120    1
   149   115   116    1
   150    23    24    1
   151   121   120    1
   152   121   122    2
   153   116   118   ar
   154    27    24    1
   155    24    25    1
   156    45    44    1
   157    43    44    1
   158    43    42    1
   159    25    26    2
   160    40    39    2
   161    41    42    1
   162    41    38    1
   163    37    38    1
   164    39    38    1
