@<TRIPOS>MOLECULE
tmp/2c8zB01.pdb
 126 127 0 0 0
SMALL
GASTEIGER

@<TRIPOS>ATOM
      1  N         -0.7060   27.3320   52.5690 N.3    43  HIS43      -0.1241
      2  CA        -0.5690   25.9530   53.0360 C.3    43  HIS43       0.1621
      3  C          0.2230   25.8220   54.3630 C.2    43  HIS43       0.2264
      4  O          0.2990   24.7350   54.9590 O.2    43  HIS43      -0.2867
      5  CB         0.0150   25.0590   51.9230 C.3    43  HIS43       0.0745
      6  CG         1.5130   25.0390   51.8670 C.ar   43  HIS43       0.0817
      7  ND1        2.2370   25.7490   50.9290 N.ar   43  HIS43      -0.2268
      8  CD2        2.4240   24.3670   52.6130 C.ar   43  HIS43       0.1154
      9  CE1        3.5260   25.5230   51.1130 C.ar   43  HIS43       0.1986
     10  NE2        3.6690   24.6960   52.1340 N.ar   43  HIS43      -0.2212
     11  N         -3.0020   17.1340   55.9470 N.3    50  TRP50      -0.1241
     12  CA        -2.1010   16.8910   57.0760 C.3    50  TRP50       0.1605
     13  C         -2.7190   17.3600   58.3850 C.2    50  TRP50       0.2264
     14  O         -2.0200   17.5460   59.3790 O.2    50  TRP50      -0.2867
     15  CB        -0.7630   17.5960   56.8510 C.3    50  TRP50       0.0550
     16  CG         0.0650   17.0440   55.7150 C.ar   50  TRP50       0.0003
     17  CD1       -0.1160   15.8610   55.0470 C.ar   50  TRP50       0.0946
     18  CD2        1.2410   17.6410   55.1580 C.ar   50  TRP50       0.0152
     19  NE1        0.8620   15.7030   54.0880 N.ar   50  TRP50      -0.2442
     20  CE2        1.7080   16.7810   54.1390 C.ar   50  TRP50       0.0810
     21  CE3        1.9440   18.8280   55.4180 C.ar   50  TRP50       0.0012
     22  CZ2        2.8410   17.0730   53.3750 C.ar   50  TRP50       0.0191
     23  CZ3        3.0700   19.1170   54.6610 C.ar   50  TRP50       0.0001
     24  CH2        3.5040   18.2440   53.6440 C.ar   50  TRP50       0.0015
     25  N         17.7250   24.4800   45.8620 N.3   191  ASP191     -0.1225
     26  CA        16.2670   24.3930   45.9200 C.3   191  ASP191      0.1805
     27  C         15.8650   24.7960   47.3370 C.2   191  ASP191      0.2598
     28  O         16.6950   24.7660   48.2350 O.2   191  ASP191     -0.2718
     29  CB        15.8140   22.9570   45.6100 C.3   191  ASP191      0.1424
     30  CG        14.3140   22.8400   45.3590 C.2   191  ASP191      0.3668
     31  OD1       13.6050   23.8700   45.3650 O.co2 191  ASP191     -0.2456
     32  OD2       13.8450   21.6940   45.1410 O.co2 191  ASP191     -0.2456
     33  N         14.6140   25.2040   47.5170 N.am  192  ALA192     -0.1966
     34  CA        13.9990   25.2310   48.8420 C.3   192  ALA192      0.1728
     35  C         13.7300   23.7860   49.2960 C.2   192  ALA192      0.2616
     36  O         13.8660   22.8400   48.5260 O.2   192  ALA192     -0.2715
     37  CB        12.7030   26.0260   48.8140 C.3   192  ALA192      0.0334
     38  N         13.3620   23.6280   50.5560 N.am  193  CYS193     -0.1954
     39  CA        13.0290   22.3170   51.1050 C.3   193  CYS193      0.1843
     40  C         12.1220   22.5270   52.3070 C.2   193  CYS193      0.2625
     41  O         11.7630   23.6630   52.6210 O.2   193  CYS193     -0.2714
     42  CB        14.2950   21.5280   51.4710 C.3   193  CYS193      0.0997
     43  SG        14.0880   19.6770   51.4850 S.3   193  CYS193     -0.0797
     44  N         11.7400   21.4270   52.9550 N.am  194  GLU194     -0.1977
     45  CA        10.7370   21.4150   54.0160 C.3   194  GLU194      0.1602
     46  C         11.0420   22.4290   55.1260 C.2   194  GLU194      0.2287
     47  O         12.1370   22.4450   55.6520 O.2   194  GLU194     -0.2864
     48  CB        10.6360   19.9830   54.5710 C.3   194  GLU194      0.0415
     49  CG         9.8490   19.7910   55.8730 C.3   194  GLU194      0.1163
     50  CD         8.3870   20.1870   55.7710 C.2   194  GLU194      0.3649
     51  OE1        7.8390   20.6720   56.7970 O.co2 194  GLU194     -0.2457
     52  OE2        7.7920   20.0110   54.6780 O.co2 194  GLU194     -0.2457
     53  N          8.8940   26.7530   53.0140 N.3   197  SER197     -0.1217
     54  CA         7.6140   27.2500   52.4860 C.3   197  SER197      0.1889
     55  C          7.1660   28.5250   53.1660 C.2   197  SER197      0.2288
     56  O          7.4540   28.7360   54.3490 O.2   197  SER197     -0.2866
     57  CB         6.5030   26.2060   52.6930 C.3   197  SER197      0.2089
     58  OG         6.7980   25.0350   51.9760 O.3   197  SER197     -0.2183
     59  N          7.5320   30.7470   48.4480 N.3   217  VAL217     -0.1231
     60  CA         7.9140   29.3510   48.3570 C.3   217  VAL217      0.1692
     61  C          6.6890   28.4980   48.5750 C.2   217  VAL217      0.2593
     62  O          6.1310   28.5210   49.6580 O.2   217  VAL217     -0.2718
     63  CB         8.9660   28.9880   49.3880 C.3   217  VAL217      0.0266
     64  CG1        9.3630   27.5020   49.2070 C.3   217  VAL217      0.0020
     65  CG2       10.1950   29.9260   49.2450 C.3   217  VAL217      0.0020
     66  N          6.2550   27.7920   47.5310 N.am  218  SER218     -0.1938
     67  CA         5.0060   27.0330   47.5860 C.3   218  SER218      0.2055
     68  C          5.2220   25.5140   47.6570 C.2   218  SER218      0.2643
     69  O          4.9460   24.9130   48.6910 O.2   218  SER218     -0.2714
     70  CB         4.0930   27.4200   46.4130 C.3   218  SER218      0.2130
     71  OG         2.8200   26.8170   46.5350 O.3   218  SER218     -0.2179
     72  N          5.7090   24.8840   46.5890 N.am  219  TRP219     -0.1959
     73  CA         5.8950   23.4240   46.6200 C.3   219  TRP219      0.1771
     74  C          6.9740   22.9300   45.6860 C.2   219  TRP219      0.2620
     75  O          7.4180   23.6400   44.7980 O.2   219  TRP219     -0.2715
     76  CB         4.5750   22.6950   46.2890 C.3   219  TRP219      0.0590
     77  CG         3.9930   23.0290   44.9350 C.ar  219  TRP219      0.0006
     78  CD1        3.2020   24.0890   44.6390 C.ar  219  TRP219      0.0946
     79  CD2        4.1390   22.2880   43.7150 C.ar  219  TRP219      0.0152
     80  NE1        2.8700   24.0820   43.3120 N.ar  219  TRP219     -0.2442
     81  CE2        3.4200   22.9760   42.7230 C.ar  219  TRP219      0.0810
     82  CE3        4.8310   21.1220   43.3600 C.ar  219  TRP219      0.0012
     83  CZ2        3.3460   22.5260   41.4010 C.ar  219  TRP219      0.0191
     84  CZ3        4.7660   20.6800   42.0480 C.ar  219  TRP219      0.0001
     85  CH2        4.0370   21.3820   41.0830 C.ar  219  TRP219      0.0015
     86  N          7.3830   21.6880   45.9170 N.am  220  GLY220     -0.1954
     87  CA         8.3360   20.9840   45.0760 C.3   220  GLY220      0.1869
     88  C          8.0080   19.5010   45.1080 C.2   220  GLY220      0.2309
     89  O          7.1370   19.0760   45.8600 O.2   220  GLY220     -0.2863
     90  N         10.0480   16.5300   46.0820 N.3   222  GLY222     -0.1210
     91  CA        11.3450   16.3640   46.7010 C.3   222  GLY222      0.1956
     92  C         12.0160   17.7190   46.8590 C.2   222  GLY222      0.2612
     93  O         11.3490   18.7540   46.8660 O.2   222  GLY222     -0.2717
     94  N         13.3340   17.6930   47.0110 N.am  223  CYS223     -0.1970
     95  CA        14.1410   18.8880   47.1980 C.3   223  CYS223      0.1712
     96  C         15.4280   18.7280   46.4300 C.2   223  CYS223      0.2296
     97  O         16.1650   17.7590   46.6530 O.2   223  CYS223     -0.2864
     98  CB        14.5060   19.0620   48.6520 C.3   223  CYS223      0.0983
     99  SG        13.1480   19.2740   49.7260 S.3   223  CYS223     -0.0798
    100  N         11.4390   23.9710   41.9200 N.3   230  GLY230     -0.1210
    101  CA        10.5920   24.5390   42.9370 C.3   230  GLY230      0.1956
    102  C          9.5320   25.4100   42.3020 C.2   230  GLY230      0.2612
    103  O          9.7900   26.0890   41.3050 O.2   230  GLY230     -0.2717
    104  N          8.3570   25.4180   42.9170 N.am  231  PHE231     -0.1962
    105  CA         7.2270   26.1940   42.4520 C.3   231  PHE231      0.1771
    106  C          6.9160   27.2790   43.4500 C.2   231  PHE231      0.2619
    107  O          6.9600   27.0630   44.6670 O.2   231  PHE231     -0.2715
    108  CB         6.0360   25.2880   42.1680 C.3   231  PHE231      0.0574
    109  CG         6.1990   24.5370   40.9110 C.ar  231  PHE231     -0.0200
    110  CD1        7.1160   23.4850   40.8380 C.ar  231  PHE231     -0.0042
    111  CD2        5.5580   24.9470   39.7620 C.ar  231  PHE231     -0.0042
    112  CE1        7.3250   22.8240   39.6470 C.ar  231  PHE231     -0.0003
    113  CE2        5.7640   24.3010   38.5820 C.ar  231  PHE231     -0.0003
    114  CZ         6.6480   23.2300   38.5180 C.ar  231  PHE231     -0.0000
    115  N          6.6790   28.4750   42.9220 N.am  232  TYR232     -0.1974
    116  CA         6.5100   29.6670   43.7420 C.3   232  TYR232      0.1639
    117  C          5.1990   30.3390   43.4340 C.2   232  TYR232      0.2290
    118  O          4.7700   30.3450   42.3000 O.2   232  TYR232     -0.2864
    119  CB         7.6550   30.6350   43.4790 C.3   232  TYR232      0.0560
    120  CG         8.9750   30.0170   43.8800 C.ar  232  TYR232     -0.0198
    121  CD1        9.6160   29.1070   43.0490 C.ar  232  TYR232     -0.0009
    122  CD2        9.5250   30.2730   45.1250 C.ar  232  TYR232     -0.0009
    123  CE1       10.8210   28.4970   43.4290 C.ar  232  TYR232      0.0417
    124  CE2       10.7320   29.6750   45.5110 C.ar  232  TYR232      0.0417
    125  CZ        11.3540   28.7690   44.6670 C.ar  232  TYR232      0.1957
    126  OH        12.5400   28.1910   45.0590 O.3   232  TYR232     -0.2866
@<TRIPOS>BOND
     1   114   113   ar
     2   114   112   ar
     3   113   111   ar
     4   112   110   ar
     5   111   109   ar
     6   110   109   ar
     7   109   108    1
     8    85    83   ar
     9    85    84   ar
    10   103   102    2
    11    83    81   ar
    12   100   101    1
    13    84    82   ar
    14   108   105    1
    15   118   117    2
    16   102   104   am
    17   102   101    1
    18   105   104    1
    19   105   106    1
    20    81    80   ar
    21    81    79   ar
    22   115   106   am
    23   115   116    1
    24   121   123   ar
    25   121   120   ar
    26    80    78   ar
    27    82    79   ar
    28   123   125   ar
    29   117   116    1
    30   106   107    2
    31   119   116    1
    32   119   120    1
    33    79    77   ar
    34   120   122   ar
    35    78    77   ar
    36   125   126    1
    37   125   124   ar
    38    75    74    2
    39    77    76    1
    40    87    88    1
    41    87    86    1
    42    88    89    2
    43   122   124   ar
    44    32    30   ar
    45    30    31   ar
    46    30    29    1
    47    29    26    1
    48    74    86   am
    49    74    73    1
    50    25    26    1
    51    26    27    1
    52    90    91    1
    53    76    73    1
    54    70    71    1
    55    70    67    1
    56    96    97    2
    57    96    95    1
    58    72    73    1
    59    72    68   am
    60    91    92    1
    61    92    93    2
    62    92    94   am
    63    94    95    1
    64    95    98    1
    65    27    33   am
    66    27    28    2
    67    33    34    1
    68    66    67    1
    69    66    61   am
    70    67    68    1
    71    68    69    2
    72    60    59    1
    73    60    61    1
    74    60    63    1
    75    36    35    2
    76    61    62    2
    77    98    99    1
    78    37    34    1
    79    34    35    1
    80    64    63    1
    81    65    63    1
    82    35    38   am
    83    99    43    1
    84    38    39    1
    85     7     9   ar
    86     7     6   ar
    87    39    42    1
    88    39    40    1
    89     9    10   ar
    90    42    43    1
    91     6     5    1
    92     6     8   ar
    93     5     2    1
    94    58    57    1
    95    10     8   ar
    96    40    41    2
    97    40    44   am
    98    54    57    1
    99    54    53    1
   100    54    55    1
   101     1     2    1
   102    44    45    1
   103     2     3    1
   104    55    56    2
   105    22    24   ar
   106    22    20   ar
   107    24    23   ar
   108    45    48    1
   109    45    46    1
   110    19    20   ar
   111    19    17   ar
   112    20    18   ar
   113     3     4    2
   114    48    49    1
   115    23    21   ar
   116    52    50   ar
   117    17    16   ar
   118    46    47    2
   119    18    21   ar
   120    18    16   ar
   121    16    15    1
   122    50    49    1
   123    50    51   ar
   124    11    12    1
   125    15    12    1
   126    12    13    1
   127    13    14    2
