@<TRIPOS>MOLECULE
tmp/2c90B01.pdb
 105 103 0 0 0
SMALL
GASTEIGER

@<TRIPOS>ATOM
      1  N         17.1450   16.4060   51.9960 N.3   146  GLU146     -0.1245
      2  CA        15.8920   15.6430   51.9360 C.3   146  GLU146      0.1567
      3  C         15.8850   14.4230   52.8620 C.2   146  GLU146      0.2260
      4  O         16.8240   13.6120   52.8660 O.2   146  GLU146     -0.2867
      5  CB        15.6510   15.1880   50.4970 C.3   146  GLU146      0.0388
      6  CG        14.2000   14.9700   50.1390 C.3   146  GLU146      0.1160
      7  CD        14.0510   14.3880   48.7570 C.2   146  GLU146      0.3649
      8  OE1       14.8410   14.7440   47.8570 O.co2 146  GLU146     -0.2457
      9  OE2       13.1490   13.5660   48.5730 O.co2 146  GLU146     -0.2457
     10  N         17.8760   24.3990   46.2920 N.3   191  ASP191     -0.1225
     11  CA        16.4200   24.3110   46.3640 C.3   191  ASP191      0.1805
     12  C         15.9530   24.7670   47.7520 C.2   191  ASP191      0.2598
     13  O         16.7600   24.9370   48.6500 O.2   191  ASP191     -0.2718
     14  CB        15.9690   22.8680   46.0920 C.3   191  ASP191      0.1424
     15  CG        14.5010   22.7560   45.7070 C.2   191  ASP191      0.3668
     16  OD1       13.7920   23.7890   45.6400 O.co2 191  ASP191     -0.2456
     17  OD2       14.0630   21.6010   45.4540 O.co2 191  ASP191     -0.2456
     18  N         14.6620   25.0050   47.9280 N.am  192  ALA192     -0.1966
     19  CA        14.1310   25.1330   49.2770 C.3   192  ALA192      0.1728
     20  C         13.9280   23.7050   49.7660 C.2   192  ALA192      0.2616
     21  O         13.9750   22.7790   48.9850 O.2   192  ALA192     -0.2715
     22  CB        12.8110   25.9100   49.2880 C.3   192  ALA192      0.0334
     23  N         13.6840   23.5360   51.0550 N.am  193  CYS193     -0.1954
     24  CA        13.3900   22.2300   51.6120 C.3   193  CYS193      0.1843
     25  C         12.4410   22.4130   52.7820 C.2   193  CYS193      0.2625
     26  O         11.8690   23.4910   52.9470 O.2   193  CYS193     -0.2714
     27  CB        14.6770   21.5340   52.0230 C.3   193  CYS193      0.0997
     28  SG        14.5860   19.7060   52.1470 S.3   193  CYS193     -0.0797
     29  N         12.2350   21.3690   53.5780 N.am  194  GLU194     -0.1977
     30  CA        11.1320   21.3660   54.5460 C.3   194  GLU194      0.1602
     31  C         11.3880   22.4030   55.6040 C.2   194  GLU194      0.2287
     32  O         12.4750   22.4650   56.1480 O.2   194  GLU194     -0.2864
     33  CB        10.9510   19.9780   55.1940 C.3   194  GLU194      0.0415
     34  CG         9.6040   19.7980   55.8770 C.3   194  GLU194      0.1163
     35  CD         9.2140   18.3460   55.9980 C.2   194  GLU194      0.3649
     36  OE1        8.0580   18.0150   55.6520 O.co2 194  GLU194     -0.2457
     37  OE2       10.0700   17.5350   56.4120 O.co2 194  GLU194     -0.2457
     38  N          9.2060   26.5430   53.4330 N.3   197  SER197     -0.1217
     39  CA         7.9270   26.9650   52.8720 C.3   197  SER197      0.1889
     40  C          7.4350   28.2100   53.5640 C.2   197  SER197      0.2288
     41  O          7.6750   28.3630   54.7540 O.2   197  SER197     -0.2866
     42  CB         6.8730   25.8570   53.0140 C.3   197  SER197      0.2089
     43  OG         7.0990   24.8460   52.0540 O.3   197  SER197     -0.2183
     44  N          7.7730   30.5900   48.6600 N.3   217  VAL217     -0.1245
     45  CA         8.1220   29.1710   48.5710 C.3   217  VAL217      0.1561
     46  C          6.8280   28.3800   48.8090 C.2   217  VAL217      0.2260
     47  O          6.2100   28.5200   49.8590 O.2   217  VAL217     -0.2867
     48  CB         9.2210   28.7950   49.6070 C.3   217  VAL217      0.0252
     49  CG1        9.8530   27.4120   49.2870 C.3   217  VAL217      0.0019
     50  CG2       10.3150   29.8610   49.6720 C.3   217  VAL217      0.0019
     51  N          5.8420   24.8520   46.9700 N.3   219  TRP219     -0.1227
     52  CA         5.9610   23.3940   46.9760 C.3   219  TRP219      0.1737
     53  C          6.9550   22.8410   45.9800 C.2   219  TRP219      0.2596
     54  O          7.3910   23.5130   45.0260 O.2   219  TRP219     -0.2718
     55  CB         4.6150   22.7360   46.6830 C.3   219  TRP219      0.0564
     56  CG         4.0670   23.0070   45.3330 C.ar  219  TRP219      0.0003
     57  CD1        3.2890   24.0680   44.9600 C.ar  219  TRP219      0.0946
     58  CD2        4.1900   22.1720   44.1680 C.ar  219  TRP219      0.0152
     59  NE1        2.9510   23.9620   43.6450 N.ar  219  TRP219     -0.2442
     60  CE2        3.4870   22.8090   43.1290 C.ar  219  TRP219      0.0810
     61  CE3        4.8480   20.9580   43.8970 C.ar  219  TRP219      0.0012
     62  CZ2        3.4160   22.2710   41.8390 C.ar  219  TRP219      0.0191
     63  CZ3        4.7920   20.4340   42.6140 C.ar  219  TRP219      0.0001
     64  CH2        4.0800   21.0900   41.6030 C.ar  219  TRP219      0.0015
     65  N          7.2600   21.5760   46.1780 N.am  220  GLY220     -0.1957
     66  CA         8.0960   20.8550   45.2500 C.3   220  GLY220      0.1869
     67  C          8.0600   19.4060   45.6070 C.2   220  GLY220      0.2309
     68  O          7.5980   19.0560   46.6820 O.2   220  GLY220     -0.2863
     69  N         10.2300   16.7170   46.6150 N.3   222  GLY222     -0.1210
     70  CA        11.5430   16.5370   47.1940 C.3   222  GLY222      0.1956
     71  C         12.3520   17.8160   47.1940 C.2   222  GLY222      0.2612
     72  O         11.8740   18.8780   46.8070 O.2   222  GLY222     -0.2717
     73  N         13.5830   17.7040   47.6660 N.am  223  CYS223     -0.1970
     74  CA        14.4790   18.8310   47.7710 C.3   223  CYS223      0.1712
     75  C         15.7140   18.5510   46.8980 C.2   223  CYS223      0.2296
     76  O         16.3320   17.4900   47.0060 O.2   223  CYS223     -0.2864
     77  CB        14.9000   19.0560   49.2280 C.3   223  CYS223      0.0983
     78  SG        13.5830   19.1220   50.4780 S.3   223  CYS223     -0.0798
     79  N         11.4860   23.7400   42.3430 N.3   230  GLY230     -0.1210
     80  CA        10.5590   24.1610   43.3630 C.3   230  GLY230      0.1956
     81  C          9.6150   25.1560   42.7390 C.2   230  GLY230      0.2612
     82  O         10.0090   25.8580   41.8030 O.2   230  GLY230     -0.2717
     83  N          8.3840   25.2120   43.2570 N.am  231  PHE231     -0.1962
     84  CA         7.3430   26.1060   42.7510 C.3   231  PHE231      0.1771
     85  C          7.0170   27.1900   43.7540 C.2   231  PHE231      0.2619
     86  O          7.0760   26.9720   44.9540 O.2   231  PHE231     -0.2715
     87  CB         6.0960   25.3260   42.3000 C.3   231  PHE231      0.0574
     88  CG         6.3430   24.5170   41.0540 C.ar  231  PHE231     -0.0200
     89  CD1        7.2470   23.4560   41.0680 C.ar  231  PHE231     -0.0042
     90  CD2        5.7440   24.8520   39.8580 C.ar  231  PHE231     -0.0042
     91  CE1        7.5130   22.7280   39.9270 C.ar  231  PHE231     -0.0003
     92  CE2        6.0020   24.1200   38.7250 C.ar  231  PHE231     -0.0003
     93  CZ         6.9100   23.0670   38.7600 C.ar  231  PHE231     -0.0000
     94  N          6.7270   28.3800   43.2280 N.am  232  TYR232     -0.1974
     95  CA         6.5900   29.5650   44.0170 C.3   232  TYR232      0.1639
     96  C          5.2730   30.2490   43.6680 C.2   232  TYR232      0.2290
     97  O          4.8560   30.2320   42.5240 O.2   232  TYR232     -0.2864
     98  CB         7.7820   30.5130   43.7560 C.3   232  TYR232      0.0560
     99  CG         9.1030   29.9110   44.1800 C.ar  232  TYR232     -0.0198
    100  CD1        9.7490   28.9910   43.3680 C.ar  232  TYR232     -0.0009
    101  CD2        9.6750   30.2150   45.4100 C.ar  232  TYR232     -0.0009
    102  CE1       10.9360   28.4060   43.7460 C.ar  232  TYR232      0.0417
    103  CE2       10.8690   29.6150   45.8040 C.ar  232  TYR232      0.0417
    104  CZ        11.4840   28.6960   44.9590 C.ar  232  TYR232      0.1957
    105  OH        12.6770   28.0750   45.3080 O.3   232  TYR232     -0.2866
@<TRIPOS>BOND
     1    92    93   ar
     2    92    90   ar
     3    93    91   ar
     4    90    88   ar
     5    91    89   ar
     6    88    89   ar
     7    88    87    1
     8    64    62   ar
     9    64    63   ar
    10    82    81    2
    11    62    60   ar
    12    87    84    1
    13    79    80    1
    14    97    96    2
    15    63    61   ar
    16    81    83   am
    17    81    80    1
    18    84    83    1
    19    84    85    1
    20    60    59   ar
    21    60    58   ar
    22    94    85   am
    23    94    95    1
    24   100   102   ar
    25   100    99   ar
    26    59    57   ar
    27    96    95    1
    28   102   104   ar
    29    85    86    2
    30    98    95    1
    31    98    99    1
    32    61    58   ar
    33    58    56   ar
    34    99   101   ar
    35   104   105    1
    36   104   103   ar
    37    57    56   ar
    38    54    53    2
    39    66    67    1
    40    66    65    1
    41    56    55    1
    42   101   103   ar
    43    17    15   ar
    44    67    68    2
    45    16    15   ar
    46    15    14    1
    47    53    65   am
    48    53    52    1
    49    14    11    1
    50    10    11    1
    51    11    12    1
    52    69    70    1
    53    55    52    1
    54    72    71    2
    55    75    76    2
    56    75    74    1
    57    51    52    1
    58    71    70    1
    59    71    73   am
    60    73    74    1
    61    12    18   am
    62    12    13    2
    63    74    77    1
    64     8     7   ar
    65    18    19    1
    66    45    44    1
    67    45    46    1
    68    45    48    1
    69     9     7   ar
    70     7     6    1
    71    46    47    2
    72    21    20    2
    73    77    78    1
    74    19    22    1
    75    19    20    1
    76    49    48    1
    77    48    50    1
    78    20    23   am
    79     6     5    1
    80    78    28    1
    81     5     2    1
    82    23    24    1
    83    24    27    1
    84    24    25    1
    85     2     1    1
    86     2     3    1
    87    27    28    1
    88    43    42    1
    89    25    26    2
    90    25    29   am
    91     3     4    2
    92    39    42    1
    93    39    38    1
    94    39    40    1
    95    40    41    2
    96    29    30    1
    97    30    33    1
    98    30    31    1
    99    33    34    1
   100    31    32    2
   101    36    35   ar
   102    34    35    1
   103    35    37   ar
