@<TRIPOS>MOLECULE
tmp/2c91A01.pdb
 129 126 0 0 0
SMALL
GASTEIGER

@<TRIPOS>ATOM
      1  N         12.1110    9.4760   23.1180 N.3    11  MET11      -0.1245
      2  CA        12.9250    8.3050   22.9280 C.3    11  MET11       0.1570
      3  C         14.3490    8.4230   23.4530 C.2    11  MET11       0.2261
      4  O         14.9370    7.4240   23.8310 O.2    11  MET11      -0.2867
      5  CB        12.9950    8.0440   21.4440 C.3    11  MET11       0.0387
      6  CG        13.7460    6.8140   21.1190 C.3    11  MET11       0.0595
      7  SD        14.6850    6.9390   19.5790 S.3    11  MET11      -0.1393
      8  CE        13.4330    6.9800   18.2390 C.3    11  MET11       0.0692
      9  N          9.1800    0.7500   26.0630 N.3    42  MET42      -0.1230
     10  CA        10.4570    0.2960   25.5690 C.3    42  MET42       0.1702
     11  C         11.5950    1.2440   25.8260 C.2    42  MET42       0.2592
     12  O         12.7050    0.8030   26.0510 O.2    42  MET42      -0.2718
     13  CB        10.3560    0.1560   24.0460 C.3    42  MET42       0.0401
     14  CG        11.6470   -0.2670   23.3560 C.3    42  MET42       0.0596
     15  SD        11.9230    0.6600   21.8150 S.3    42  MET42      -0.1393
     16  CE        13.4050   -0.1440   21.4820 C.3    42  MET42       0.0692
     17  N         11.3420    2.5520   25.7600 N.am   43  TYR43      -0.1976
     18  CA        12.4500    3.5510   25.6950 C.3    43  TYR43       0.1639
     19  C         13.3020    3.5710   26.9550 C.2    43  TYR43       0.2290
     20  O         12.7730    3.7170   28.0890 O.2    43  TYR43      -0.2864
     21  CB        11.9510    4.9770   25.3750 C.3    43  TYR43       0.0560
     22  CG        11.1690    5.0660   24.1130 C.ar   43  TYR43      -0.0198
     23  CD1       11.3180    4.1220   23.0920 C.ar   43  TYR43      -0.0009
     24  CD2       10.2490    6.0940   23.9160 C.ar   43  TYR43      -0.0009
     25  CE1       10.5480    4.2170   21.8550 C.ar   43  TYR43       0.0417
     26  CE2        9.5040    6.2030   22.6760 C.ar   43  TYR43       0.0417
     27  CZ         9.6770    5.2540   21.6490 C.ar   43  TYR43       0.1957
     28  OH         8.8880    5.3270   20.4860 O.3    43  TYR43      -0.2866
     29  N          8.1160   -7.2860   21.6450 N.3    75  TRP75      -0.1241
     30  CA         9.5230   -7.6870   21.5050 C.3    75  TRP75       0.1605
     31  C         10.1240   -8.4180   22.7050 C.2    75  TRP75       0.2264
     32  O          9.6050   -8.3480   23.8330 O.2    75  TRP75      -0.2867
     33  CB        10.3580   -6.4430   21.1930 C.3    75  TRP75       0.0550
     34  CG         9.8850   -5.7460   20.0050 C.ar   75  TRP75       0.0003
     35  CD1        9.5170   -6.3310   18.8500 C.ar   75  TRP75       0.0946
     36  CD2        9.7550   -4.3050   19.7910 C.ar   75  TRP75       0.0152
     37  NE1        9.1840   -5.3810   17.9330 N.ar   75  TRP75      -0.2442
     38  CE2        9.3230   -4.1280   18.4690 C.ar   75  TRP75       0.0810
     39  CE3        9.9570   -3.1550   20.5900 C.ar   75  TRP75       0.0012
     40  CZ2        9.0590   -2.8370   17.9140 C.ar   75  TRP75       0.0191
     41  CZ3        9.7570   -1.8900   20.0070 C.ar   75  TRP75       0.0001
     42  CH2        9.3070   -1.7460   18.7000 C.ar   75  TRP75       0.0015
     43  N          2.5440   -0.8580   19.7100 N.3   107  HIS107     -0.1241
     44  CA         3.7530   -0.2050   19.1980 C.3   107  HIS107      0.1621
     45  C          4.1510   -0.7880   17.8450 C.2   107  HIS107      0.2264
     46  O          4.6790   -0.0770   16.9570 O.2   107  HIS107     -0.2867
     47  CB         4.8770   -0.3960   20.2540 C.3   107  HIS107      0.0745
     48  CG         6.0920    0.4860   20.1090 C.ar  107  HIS107      0.0817
     49  ND1        6.8880    0.8090   21.1930 N.ar  107  HIS107     -0.2268
     50  CD2        6.7070    1.0250   19.0100 C.ar  107  HIS107      0.1154
     51  CE1        7.9110    1.5420   20.7770 C.ar  107  HIS107      0.1986
     52  NE2        7.8290    1.6800   19.4550 N.ar  107  HIS107     -0.2212
     53  N          2.7410    1.0540   13.1690 N.3   138  ASN138     -0.1240
     54  CA         3.4890    0.0690   12.3630 C.3   138  ASN138      0.1653
     55  C          2.6710   -1.1400   11.8620 C.2   138  ASN138      0.2266
     56  O          3.2490   -2.1560   11.3960 O.2   138  ASN138     -0.2867
     57  CB         4.7210   -0.4180   13.1500 C.3   138  ASN138      0.1155
     58  CG         5.6830    0.6950   13.4380 C.2   138  ASN138      0.2627
     59  OD1        6.0100    1.4730   12.5140 O.2   138  ASN138     -0.2716
     60  ND2        6.1410    0.8170   14.7090 N.am  138  ASN138     -0.0877
     61  N          0.2560    6.1270   14.5630 N.3   163  GLN163     -0.1245
     62  CA         1.5810    6.7560   14.5640 C.3   163  GLN163      0.1566
     63  C          2.4300    6.0810   13.5090 C.2   163  GLN163      0.2260
     64  O          2.6810    4.8790   13.5800 O.2   163  GLN163     -0.2867
     65  CB         2.2430    6.5610   15.9400 C.3   163  GLN163      0.0367
     66  CG         3.6270    7.2380   16.0780 C.3   163  GLN163      0.0905
     67  CD         4.0990    7.3230   17.4700 C.2   163  GLN163      0.2608
     68  OE1        5.1950    6.8110   17.7760 O.2   163  GLN163     -0.2717
     69  NE2        3.2880    7.9010   18.3530 N.am  163  GLN163     -0.0878
     70  N          6.1950   10.0020   12.8980 N.3   191  TYR191     -0.1241
     71  CA         7.5290    9.8230   13.4640 C.3   191  TYR191      0.1605
     72  C          8.5640    9.7580   12.3520 C.2   191  TYR191      0.2264
     73  O          8.2330    9.6520   11.1150 O.2   191  TYR191     -0.2867
     74  CB         7.5580    8.5930   14.4030 C.3   191  TYR191      0.0534
     75  CG         7.6030    7.2280   13.7890 C.ar  191  TYR191     -0.0201
     76  CD1        8.7400    6.7750   13.1330 C.ar  191  TYR191     -0.0009
     77  CD2        6.5660    6.3910   13.8980 C.ar  191  TYR191     -0.0009
     78  CE1        8.7900    5.5390   12.5370 C.ar  191  TYR191      0.0417
     79  CE2        6.6080    5.0890   13.3350 C.ar  191  TYR191      0.0417
     80  CZ         7.7170    4.7000   12.6680 C.ar  191  TYR191      0.1957
     81  OH         7.7840    3.4690   12.1300 O.3   191  TYR191     -0.2866
     82  N         19.7900   -0.2510   17.7710 N.3   222  TRP222     -0.1241
     83  CA        18.9340   -0.0060   16.6320 C.3   222  TRP222      0.1605
     84  C         19.6560    0.6340   15.4410 C.2   222  TRP222      0.2264
     85  O         19.0480    0.9610   14.4570 O.2   222  TRP222     -0.2867
     86  CB        17.7460    0.8650   17.0150 C.3   222  TRP222      0.0550
     87  CG        16.6650    0.0660   17.6350 C.ar  222  TRP222      0.0003
     88  CD1       16.6690   -0.4850   18.9010 C.ar  222  TRP222      0.0946
     89  CD2       15.4210   -0.3110   17.0410 C.ar  222  TRP222      0.0152
     90  NE1       15.4850   -1.1480   19.1340 N.ar  222  TRP222     -0.2442
     91  CE2       14.7040   -1.0750   18.0150 C.ar  222  TRP222      0.0810
     92  CE3       14.8440   -0.1030   15.7880 C.ar  222  TRP222      0.0012
     93  CZ2       13.4490   -1.6030   17.7760 C.ar  222  TRP222      0.0191
     94  CZ3       13.5670   -0.6380   15.5500 C.ar  222  TRP222      0.0001
     95  CH2       12.8850   -1.3680   16.5360 C.ar  222  TRP222      0.0015
     96  N         18.2040    1.3400   11.6770 N.3   226  TYR226     -0.1241
     97  CA        18.1720    2.7070   11.1010 C.3   226  TYR226      0.1605
     98  C         18.9170    2.8600    9.7990 C.2   226  TYR226      0.2264
     99  O         18.4060    3.5180    8.8860 O.2   226  TYR226     -0.2867
    100  CB        18.5440    3.7800   12.1270 C.3   226  TYR226      0.0534
    101  CG        17.2720    4.2150   12.8000 C.ar  226  TYR226     -0.0201
    102  CD1       16.7520    3.5160   13.8970 C.ar  226  TYR226     -0.0009
    103  CD2       16.5600    5.2760   12.3130 C.ar  226  TYR226     -0.0009
    104  CE1       15.6030    3.8980   14.5240 C.ar  226  TYR226      0.0417
    105  CE2       15.3720    5.6310   12.9080 C.ar  226  TYR226      0.0417
    106  CZ        14.8970    4.9500   14.0080 C.ar  226  TYR226      0.1957
    107  OH        13.6940    5.3480   14.5180 O.3   226  TYR226     -0.2866
    108  N         17.0210    1.3340    7.1050 N.3   229  ARG229     -0.1245
    109  CA        15.8330    2.1110    6.8430 C.3   229  ARG229      0.1563
    110  C         16.1260    3.2390    5.9320 C.2   229  ARG229      0.2260
    111  O         15.3490    3.4680    4.9580 O.2   229  ARG229     -0.2867
    112  CB        15.2460    2.6460    8.1580 C.3   229  ARG229      0.0307
    113  CG        13.8380    3.1990    8.0750 C.3   229  ARG229      0.0489
    114  CD        13.3660    3.6690    9.4200 C.3   229  ARG229      0.2205
    115  NE        13.1090    2.5480   10.2670 N.pl3 229  ARG229     -0.0865
    116  CZ        12.6990    2.6360   11.5250 C.cat 229  ARG229      0.5346
    117  NH1       12.5270    1.5520   12.2170 N.pl3 229  ARG229      0.1354
    118  NH2       12.4680    3.7940   12.0780 N.pl3 229  ARG229      0.1354
    119  N          5.2370   -3.3860    9.8520 N.3   325  ARG325     -0.1245
    120  CA         6.1850   -4.4090   10.3140 C.3   325  ARG325      0.1563
    121  C          5.5070   -5.7310   10.6620 C.2   325  ARG325      0.2260
    122  O          4.3060   -5.9090   10.7120 O.2   325  ARG325     -0.2867
    123  CB         6.9040   -3.9250   11.5810 C.3   325  ARG325      0.0307
    124  CG         7.5690   -2.5540   11.4610 C.3   325  ARG325      0.0489
    125  CD         8.2400   -2.1130   12.7300 C.3   325  ARG325      0.2205
    126  NE         8.5940   -0.6980   12.6240 N.pl3 325  ARG325     -0.0865
    127  CZ         9.2870    0.0060   13.5240 C.cat 325  ARG325      0.5346
    128  NH1        9.4930    1.3080   13.3460 N.pl3 325  ARG325      0.1354
    129  NH2        9.7790   -0.5700   14.5990 N.pl3 325  ARG325      0.1354
@<TRIPOS>BOND
     1   111   110    2
     2   110   109    1
     3   109   108    1
     4   109   112    1
     5   113   112    1
     6   113   114    1
     7    99    98    2
     8   114   115    1
     9    98    97    1
    10   119   120    1
    11   115   116    2
    12   120   121    1
    13   120   123    1
    14   121   122    2
    15    97    96    1
    16    97   100    1
    17    73    72    2
    18    56    55    2
    19   124   123    1
    20   124   125    1
    21   116   118    1
    22   116   117    1
    23    55    54    1
    24   100   101    1
    25    81    80    1
    26   103   101   ar
    27   103   105   ar
    28    72    71    1
    29    54    57    1
    30    54    53    1
    31    59    58    2
    32    78    80   ar
    33    78    76   ar
    34   126   125    1
    35   126   127    2
    36    80    79   ar
    37   101   102   ar
    38    70    71    1
    39   105   106   ar
    40    76    75   ar
    41    57    58    1
    42    79    77   ar
    43   128   127    1
    44    58    60   am
    45    71    74    1
    46    63    64    2
    47    63    62    1
    48   127   129    1
    49    75    77   ar
    50    75    74    1
    51   102   104   ar
    52   106   107    1
    53   106   104   ar
    54    85    84    2
    55    61    62    1
    56    62    65    1
    57    84    83    1
    58    94    92   ar
    59    94    95   ar
    60    92    89   ar
    61    65    66    1
    62    66    67    1
    63    95    93   ar
    64    83    86    1
    65    83    82    1
    66    46    45    2
    67    86    87    1
    68    89    87   ar
    69    89    91   ar
    70    67    68    2
    71    67    69   am
    72    87    88   ar
    73    93    91   ar
    74    45    44    1
    75    40    38   ar
    76    40    42   ar
    77    37    38   ar
    78    37    35   ar
    79    91    90   ar
    80     8     7    1
    81    38    36   ar
    82    42    41   ar
    83    35    34   ar
    84    88    90   ar
    85    50    52   ar
    86    50    48   ar
    87    44    43    1
    88    44    47    1
    89    52    51   ar
    90     7     6    1
    91    36    34   ar
    92    36    39   ar
    93    34    33    1
    94    41    39   ar
    95    48    47    1
    96    48    49   ar
    97    28    27    1
    98    51    49   ar
    99     6     5    1
   100    33    30    1
   101     5     2    1
   102    16    15    1
   103    30    29    1
   104    30    31    1
   105    27    25   ar
   106    27    26   ar
   107    15    14    1
   108    25    23   ar
   109    26    24   ar
   110    31    32    2
   111     2     1    1
   112     2     3    1
   113    23    22   ar
   114    14    13    1
   115     3     4    2
   116    24    22   ar
   117    13    10    1
   118    22    21    1
   119    21    18    1
   120    10    11    1
   121    10     9    1
   122    18    17    1
   123    18    19    1
   124    17    11   am
   125    11    12    2
   126    19    20    2
