@<TRIPOS>MOLECULE
tmp/2c92A00.pdb
 134 132 0 0 0
SMALL
GASTEIGER

@<TRIPOS>ATOM
      1  N        -29.2200   -7.8690    9.3000 N.3    12  SER12      -0.1217
      2  CA       -29.2710   -6.5880    8.6270 C.3    12  SER12       0.1889
      3  C        -29.7010   -6.8360    7.1860 C.2    12  SER12       0.2288
      4  O        -29.2600   -7.8000    6.5790 O.2    12  SER12      -0.2866
      5  CB       -27.8820   -5.9600    8.6320 C.3    12  SER12       0.2089
      6  OG       -27.8330   -4.8930    7.6820 O.3    12  SER12      -0.2183
      7  N        -29.2310   -4.6560    4.5380 N.3    14  TRP14      -0.1227
      8  CA       -28.5260   -3.7750    3.6080 C.3    14  TRP14       0.1737
      9  C        -28.3210   -4.3700    2.2240 C.2    14  TRP14       0.2595
     10  O        -28.7510   -3.7880    1.2130 O.2    14  TRP14      -0.2718
     11  CB       -27.1960   -3.3420    4.1900 C.3    14  TRP14       0.0564
     12  CG       -26.5620   -2.2360    3.4320 C.ar   14  TRP14       0.0003
     13  CD1      -25.5720   -2.3440    2.4980 C.ar   14  TRP14       0.0946
     14  CD2      -26.8650   -0.8440    3.5420 C.ar   14  TRP14       0.0152
     15  NE1      -25.2310   -1.1000    2.0210 N.ar   14  TRP14      -0.2442
     16  CE2      -26.0120   -0.1600    2.6450 C.ar   14  TRP14       0.0810
     17  CE3      -27.7780   -0.1050    4.3110 C.ar   14  TRP14       0.0012
     18  CZ2      -26.0390    1.2320    2.5000 C.ar   14  TRP14       0.0191
     19  CZ3      -27.8110    1.2710    4.1660 C.ar   14  TRP14       0.0001
     20  CH2      -26.9470    1.9300    3.2680 C.ar   14  TRP14       0.0015
     21  N        -27.6540   -5.5110    2.1710 N.am   15  HIS15      -0.1975
     22  CA       -27.5260   -6.2650    0.9230 C.3    15  HIS15       0.1656
     23  C        -28.5270   -7.4200    1.0070 C.2    15  HIS15       0.2291
     24  O        -28.1970   -8.5220    1.4650 O.2    15  HIS15      -0.2864
     25  CB       -26.0980   -6.8030    0.7340 C.3    15  HIS15       0.0771
     26  CG       -25.0410   -5.7390    0.6920 C.ar   15  HIS15       0.0820
     27  ND1      -24.7650   -5.0060   -0.4420 N.ar   15  HIS15      -0.2267
     28  CD2      -24.1820   -5.2970    1.6420 C.ar   15  HIS15       0.1154
     29  CE1      -23.7920   -4.1490   -0.1850 C.ar   15  HIS15       0.1986
     30  NE2      -23.4170   -4.3090    1.0710 N.ar   15  HIS15      -0.2212
     31  N        -32.1140   -2.5930    9.4280 N.3    44  LEU44      -0.1231
     32  CA       -31.6780   -2.0500    8.1450 C.3    44  LEU44       0.1693
     33  C        -30.1770   -2.2780    7.8980 C.2    44  LEU44       0.2593
     34  O        -29.7950   -2.9230    6.9100 O.2    44  LEU44      -0.2718
     35  CB       -32.0830   -0.5810    8.0440 C.3    44  LEU44       0.0284
     36  CG       -32.1800   -0.0490    6.6180 C.3    44  LEU44       0.0019
     37  CD1      -33.3900   -0.6740    5.9120 C.3    44  LEU44       0.0001
     38  CD2      -32.3450    1.4340    6.7090 C.3    44  LEU44       0.0001
     39  N        -29.3300   -1.8160    8.8090 N.am   45  GLY45      -0.1942
     40  CA       -27.8950   -1.9370    8.6200 C.3    45  GLY45       0.2014
     41  C        -27.1810   -2.6190    9.7630 C.2    45  GLY45       0.2639
     42  O        -27.7440   -2.7830   10.8420 O.2    45  GLY45      -0.2714
     43  N        -25.9280   -2.9960    9.5140 N.am   46  ALA46      -0.1963
     44  CA       -25.1030   -3.6740   10.5170 C.3    46  ALA46       0.1728
     45  C        -24.9720   -2.8410   11.7950 C.2    46  ALA46       0.2616
     46  O        -24.9340   -3.3880   12.9110 O.2    46  ALA46      -0.2715
     47  CB       -23.7280   -3.9510    9.9350 C.3    46  ALA46       0.0334
     48  N        -24.9550   -1.5270   11.6480 N.am   47  ILE47      -0.1963
     49  CA       -24.7810   -0.6770   12.8260 C.3    47  ILE47       0.1727
     50  C        -25.9490   -0.8200   13.7930 C.2    47  ILE47       0.2616
     51  O        -25.7780   -0.6250   14.9890 O.2    47  ILE47      -0.2715
     52  CB       -24.5170    0.7810   12.4430 C.3    47  ILE47       0.0290
     53  CG1      -23.1010    0.8650   11.8620 C.3    47  ILE47       0.0022
     54  CG2      -24.6670    1.6930   13.6540 C.3    47  ILE47       0.0023
     55  CD1      -22.5920    2.2610   11.6150 C.3    47  ILE47       0.0001
     56  N        -27.1280   -1.1770   13.2710 N.am   48  GLU48      -0.1977
     57  CA       -28.3170   -1.3230   14.1250 C.3    48  GLU48       0.1602
     58  C        -28.3670   -2.6750   14.8550 C.2    48  GLU48       0.2287
     59  O        -29.1840   -2.8710   15.7640 O.2    48  GLU48      -0.2864
     60  CB       -29.5790   -1.1400   13.2810 C.3    48  GLU48       0.0415
     61  CG       -29.8680    0.2940   12.8280 C.3    48  GLU48       0.1163
     62  CD       -28.7960    0.8700   11.9160 C.2    48  GLU48       0.3649
     63  OE1      -28.5930    0.3090   10.8300 O.co2  48  GLU48      -0.2457
     64  OE2      -28.1750    1.8790   12.2890 O.co2  48  GLU48      -0.2457
     65  N        -23.9000   -8.0830    6.0930 N.3    68  VAL68      -0.1231
     66  CA       -22.8960   -8.0470    5.0480 C.3    68  VAL68       0.1692
     67  C        -22.4160   -6.6320    4.9260 C.2    68  VAL68       0.2592
     68  O        -23.2120   -5.7290    4.6380 O.2    68  VAL68      -0.2718
     69  CB       -23.4950   -8.4480    3.6770 C.3    68  VAL68       0.0266
     70  CG1      -22.3970   -8.4150    2.6400 C.3    68  VAL68       0.0020
     71  CG2      -24.1310   -9.8260    3.7660 C.3    68  VAL68       0.0020
     72  N        -21.1190   -6.4340    5.1530 N.am   69  VAL69      -0.1966
     73  CA       -20.5160   -5.1230    4.9280 C.3    69  VAL69       0.1727
     74  C        -19.4950   -5.2920    3.8130 C.2    69  VAL69       0.2616
     75  O        -18.6350   -6.1480    3.9050 O.2    69  VAL69      -0.2715
     76  CB       -19.8410   -4.5340    6.1900 C.3    69  VAL69       0.0290
     77  CG1      -19.4870   -3.0990    5.9550 C.3    69  VAL69       0.0023
     78  CG2      -20.7820   -4.6310    7.4020 C.3    69  VAL69       0.0023
     79  N        -19.6300   -4.5010    2.7490 N.am   70  ILE70      -0.1977
     80  CA       -18.7370   -4.6430    1.5870 C.3    70  ILE70       0.1596
     81  C        -18.0080   -3.3320    1.3450 C.2    70  ILE70       0.2287
     82  O        -18.6360   -2.2620    1.3130 O.2    70  ILE70      -0.2864
     83  CB       -19.5160   -5.0430    0.3160 C.3    70  ILE70       0.0276
     84  CG1      -20.2840   -6.3520    0.5210 C.3    70  ILE70       0.0022
     85  CG2      -18.5570   -5.1370   -0.8730 C.3    70  ILE70       0.0022
     86  CD1      -21.2310   -6.7050   -0.6260 C.3    70  ILE70       0.0001
     87  N        -16.4350   -0.0750    0.0460 N.3    72  GLY72      -0.1210
     88  CA       -16.7300    0.8600   -1.0430 C.3    72  GLY72       0.1956
     89  C        -15.4850    1.6540   -1.3850 C.2    72  GLY72       0.2612
     90  O        -14.3770    1.1160   -1.3680 O.2    72  GLY72      -0.2717
     91  N        -15.6710    2.9380   -1.6800 N.am   73  GLN73      -0.1965
     92  CA       -14.5730    3.7880   -2.1430 C.3    73  GLN73       0.1733
     93  C        -13.9250    4.6070   -1.0300 C.2    73  GLN73       0.2617
     94  O        -12.8360    5.1430   -1.2200 O.2    73  GLN73      -0.2715
     95  CB       -15.0350    4.7140   -3.2900 C.3    73  GLN73       0.0408
     96  CG       -15.4790    3.9560   -4.5280 C.3    73  GLN73       0.0908
     97  CD       -14.4340    2.9480   -5.0030 C.2    73  GLN73       0.2608
     98  OE1      -13.3020    3.3090   -5.3340 O.2    73  GLN73      -0.2717
     99  NE2      -14.8050    1.6810   -5.0110 N.am   73  GLN73      -0.0878
    100  N        -14.5910    4.6860    0.1250 N.am   74  THR74      -0.1951
    101  CA       -14.1280    5.5110    1.2430 C.3    74  THR74       0.1897
    102  C        -13.6580    4.6230    2.4200 C.2    74  THR74       0.2313
    103  O        -13.7730    3.4040    2.3530 O.2    74  THR74      -0.2863
    104  CB       -15.2470    6.4640    1.7360 C.3    74  THR74       0.1794
    105  OG1      -16.1600    5.7470    2.5790 O.3    74  THR74      -0.2208
    106  CG2      -16.0230    7.0910    0.5460 C.3    74  THR74       0.0378
    107  N        -15.2050    4.3710    5.0390 N.3    76  HIS76      -0.1226
    108  CA       -16.3940    4.1160    5.8350 C.3    76  HIS76       0.1752
    109  C        -16.5540    2.6660    6.2640 C.2    76  HIS76       0.2596
    110  O        -16.9620    2.3850    7.3930 O.2    76  HIS76      -0.2718
    111  CB       -17.6590    4.5970    5.1300 C.3    76  HIS76       0.0759
    112  CG       -18.7650    4.9050    6.0790 C.ar   76  HIS76       0.0818
    113  ND1      -18.6920    5.9390    6.9890 N.ar   76  HIS76      -0.2268
    114  CD2      -19.9460    4.2860    6.2980 C.ar   76  HIS76       0.1154
    115  CE1      -19.7990    5.9590    7.7100 C.ar   76  HIS76       0.1986
    116  NE2      -20.5710    4.9610    7.3180 N.ar   76  HIS76      -0.2212
    117  N        -16.2280    1.7470    5.3630 N.am   77  PHE77      -0.1976
    118  CA       -16.2140    0.3230    5.6670 C.3    77  PHE77       0.1639
    119  C        -15.5260    0.0070    7.0020 C.2    77  PHE77       0.2290
    120  O        -16.0620   -0.7840    7.8000 O.2    77  PHE77      -0.2864
    121  CB       -15.5250   -0.4190    4.5300 C.3    77  PHE77       0.0560
    122  CG       -15.2240   -1.8620    4.8290 C.ar   77  PHE77      -0.0200
    123  CD1      -16.1530   -2.8540    4.5400 C.ar   77  PHE77      -0.0042
    124  CD2      -13.9780   -2.2320    5.3490 C.ar   77  PHE77      -0.0042
    125  CE1      -15.8480   -4.1910    4.7840 C.ar   77  PHE77      -0.0003
    126  CE2      -13.6740   -3.5640    5.6070 C.ar   77  PHE77      -0.0003
    127  CZ       -14.6030   -4.5420    5.3150 C.ar   77  PHE77      -0.0000
    128  N        -17.7450    1.0680    9.9930 N.3    80  VAL80      -0.1245
    129  CA       -18.9300    0.2460   10.1430 C.3    80  VAL80       0.1561
    130  C        -18.5070   -1.0480   10.8340 C.2    80  VAL80       0.2260
    131  O        -19.1000   -1.4730   11.8340 O.2    80  VAL80      -0.2867
    132  CB       -19.6690   -0.0020    8.7950 C.3    80  VAL80       0.0252
    133  CG1      -20.8370   -0.9700    9.0010 C.3    80  VAL80       0.0019
    134  CG2      -20.1700    1.3420    8.2330 C.3    80  VAL80       0.0019
@<TRIPOS>BOND
     1    98    97    2
     2    99    97   am
     3    97    96    1
     4    96    95    1
     5    95    92    1
     6    92    91    1
     7    92    93    1
     8    91    89   am
     9    89    90    2
    10    89    88    1
    11    94    93    2
    12    88    87    1
    13    93   100   am
    14    85    83    1
    15    86    84    1
    16    27    29   ar
    17    27    26   ar
    18    29    30   ar
    19   100   101    1
    20    83    84    1
    21    83    80    1
    22   106   104    1
    23    26    25    1
    24    26    28   ar
    25    25    22    1
    26    22    23    1
    27    22    21    1
    28    23    24    2
    29    30    28   ar
    30    10     9    2
    31   101   104    1
    32   101   102    1
    33    82    81    2
    34    81    80    1
    35    80    79    1
    36   104   105    1
    37    15    13   ar
    38    15    16   ar
    39    21     9   am
    40     9     8    1
    41   103   102    2
    42    13    12   ar
    43    18    16   ar
    44    18    20   ar
    45    70    69    1
    46    16    14   ar
    47    79    74   am
    48    20    19   ar
    49    12    14   ar
    50    12    11    1
    51    14    17   ar
    52     8    11    1
    53     8     7    1
    54    69    71    1
    55    69    66    1
    56    74    75    2
    57    74    73    1
    58    19    17   ar
    59   121   122    1
    60   121   118    1
    61   123   125   ar
    62   123   122   ar
    63    68    67    2
    64   125   127   ar
    65   122   124   ar
    66    67    66    1
    67    67    72   am
    68    73    72    1
    69    73    76    1
    70   107   108    1
    71    66    65    1
    72   111   108    1
    73   111   112    1
    74   127   126   ar
    75   124   126   ar
    76   117   118    1
    77   117   109   am
    78   118   119    1
    79   108   109    1
    80    37    36    1
    81    77    76    1
    82   112   114   ar
    83   112   113   ar
    84    76    78    1
    85   109   110    2
    86   114   116   ar
    87     4     3    2
    88    36    38    1
    89    36    35    1
    90    34    33    2
    91   113   115   ar
    92   119   120    2
    93     3     2    1
    94   116   115   ar
    95     6     5    1
    96    33    32    1
    97    33    39   am
    98    35    32    1
    99    32    31    1
   100   134   132    1
   101    40    39    1
   102    40    41    1
   103     2     5    1
   104     2     1    1
   105   132   133    1
   106   132   129    1
   107    43    41   am
   108    43    44    1
   109    41    42    2
   110    47    44    1
   111   128   129    1
   112   129   130    1
   113    44    45    1
   114    63    62   ar
   115   130   131    2
   116    55    53    1
   117    48    45   am
   118    48    49    1
   119    45    46    2
   120    53    52    1
   121    62    64   ar
   122    62    61    1
   123    52    49    1
   124    52    54    1
   125    49    50    1
   126    61    60    1
   127    56    50   am
   128    56    57    1
   129    60    57    1
   130    50    51    2
   131    57    58    1
   132    58    59    2
