@<TRIPOS>MOLECULE
tmp/2c93B01.pdb
 161 160 0 0 0
SMALL
GASTEIGER

@<TRIPOS>ATOM
      1  N         -0.6030   27.1900   52.7290 N.3    43  HIS43      -0.1241
      2  CA        -0.4950   25.8290   53.2250 C.3    43  HIS43       0.1621
      3  C          0.2800   25.7210   54.5330 C.2    43  HIS43       0.2264
      4  O          0.2710   24.6810   55.1520 O.2    43  HIS43      -0.2867
      5  CB         0.1310   24.8960   52.1690 C.3    43  HIS43       0.0745
      6  CG         1.6230   24.9800   52.0690 C.ar   43  HIS43       0.0817
      7  ND1        2.2670   25.6540   51.0500 N.ar   43  HIS43      -0.2268
      8  CD2        2.5950   24.4160   52.8230 C.ar   43  HIS43       0.1154
      9  CE1        3.5740   25.5200   51.2080 C.ar   43  HIS43       0.1986
     10  NE2        3.7970   24.7660   52.2700 N.ar   43  HIS43      -0.2212
     11  N         -3.8830   23.1010   55.6650 N.3    47  TYR47      -0.1241
     12  CA        -3.7710   21.9700   54.7680 C.3    47  TYR47       0.1605
     13  C         -4.5420   20.7730   55.3520 C.2    47  TYR47       0.2264
     14  O         -3.9570   19.8990   56.0250 O.2    47  TYR47      -0.2867
     15  CB        -2.3080   21.6230   54.4830 C.3    47  TYR47       0.0534
     16  CG        -2.1780   20.6380   53.3610 C.ar   47  TYR47      -0.0201
     17  CD1       -2.6880   20.9350   52.0950 C.ar   47  TYR47      -0.0009
     18  CD2       -1.5870   19.4050   53.5570 C.ar   47  TYR47      -0.0009
     19  CE1       -2.6080   20.0230   51.0490 C.ar   47  TYR47       0.0417
     20  CE2       -1.4950   18.4730   52.5010 C.ar   47  TYR47       0.0417
     21  CZ        -2.0140   18.7950   51.2550 C.ar   47  TYR47       0.1957
     22  OH        -1.9510   17.8940   50.2170 O.3    47  TYR47      -0.2866
     23  N         -3.5430   16.8670   55.9000 N.3    50  TRP50      -0.1241
     24  CA        -2.6490   16.4910   56.9890 C.3    50  TRP50       0.1605
     25  C         -3.1290   17.0550   58.3220 C.2    50  TRP50       0.2264
     26  O         -2.3330   17.1910   59.2520 O.2    50  TRP50      -0.2867
     27  CB        -1.2200   16.9900   56.7270 C.3    50  TRP50       0.0550
     28  CG        -0.5180   16.4470   55.4950 C.ar   50  TRP50       0.0003
     29  CD1       -0.9320   15.4330   54.6680 C.ar   50  TRP50       0.0946
     30  CD2        0.7540   16.8760   54.9920 C.ar   50  TRP50       0.0152
     31  NE1        0.0020   15.2250   53.6720 N.ar   50  TRP50      -0.2442
     32  CE2        1.0420   16.1000   53.8510 C.ar   50  TRP50       0.0810
     33  CE3        1.6750   17.8500   55.3940 C.ar   50  TRP50       0.0012
     34  CZ2        2.2100   16.2790   53.1040 C.ar   50  TRP50       0.0191
     35  CZ3        2.8270   18.0190   54.6630 C.ar   50  TRP50       0.0001
     36  CH2        3.0880   17.2400   53.5310 C.ar   50  TRP50       0.0015
     37  N         -3.8330   20.0910   59.1750 N.3    52  LYS52      -0.1245
     38  CA        -3.2940   21.4070   59.5000 C.3    52  LYS52       0.1561
     39  C         -4.3740   22.4650   59.3330 C.2    52  LYS52       0.2260
     40  O         -4.8810   22.6700   58.2210 O.2    52  LYS52      -0.2867
     41  CB        -2.0940   21.7200   58.5920 C.3    52  LYS52       0.0271
     42  CG        -1.4020   23.0580   58.8520 C.3    52  LYS52       0.0035
     43  CD        -0.1900   23.2440   57.9230 C.3    52  LYS52       0.0206
     44  CE         0.9700   22.3750   58.3040 C.3    52  LYS52       0.1093
     45  NZ         1.9010   22.2810   57.1720 N.3    52  LYS52      -0.1314
     46  N         -6.1360   23.8180   47.8850 N.3    92  TRP92      -0.1227
     47  CA        -5.4090   22.7640   48.6080 C.3    92  TRP92       0.1737
     48  C         -5.7140   21.3560   48.1430 C.2    92  TRP92       0.2595
     49  O         -4.9880   20.4230   48.5080 O.2    92  TRP92      -0.2718
     50  CB        -5.6230   22.8510   50.1250 C.3    92  TRP92       0.0564
     51  CG        -7.0320   22.9610   50.5830 C.ar   92  TRP92       0.0003
     52  CD1       -7.7230   24.1050   50.8220 C.ar   92  TRP92       0.0946
     53  CD2       -7.9210   21.8880   50.8820 C.ar   92  TRP92       0.0152
     54  NE1       -8.9970   23.8170   51.2380 N.ar   92  TRP92      -0.2442
     55  CE2       -9.1450   22.4620   51.2910 C.ar   92  TRP92       0.0810
     56  CE3       -7.8090   20.4950   50.8350 C.ar   92  TRP92       0.0012
     57  CZ2      -10.2580   21.6910   51.6460 C.ar   92  TRP92       0.0191
     58  CZ3       -8.9160   19.7220   51.2020 C.ar   92  TRP92       0.0001
     59  CH2      -10.1210   20.3230   51.5940 C.ar   92  TRP92       0.0015
     60  N         -6.7810   21.2010   47.3610 N.am   93  ARG93      -0.1966
     61  CA        -7.2320   19.8850   46.8850 C.3    93  ARG93       0.1729
     62  C         -6.4030   19.3580   45.7330 C.2    93  ARG93       0.2616
     63  O         -6.1570   18.1550   45.6550 O.2    93  ARG93      -0.2715
     64  CB        -8.7090   19.9370   46.4460 C.3    93  ARG93       0.0348
     65  CG        -9.6460   20.1520   47.6040 C.3    93  ARG93       0.0492
     66  CD       -11.0760   20.3850   47.1850 C.3    93  ARG93       0.2205
     67  NE       -11.9500   20.3610   48.3630 N.pl3  93  ARG93      -0.0865
     68  CZ       -12.3960   19.2440   48.9550 C.cat  93  ARG93       0.5346
     69  NH1      -12.0730   18.0360   48.4750 N.pl3  93  ARG93       0.1354
     70  NH2      -13.1700   19.3330   50.0350 N.pl3  93  ARG93       0.1354
     71  N         -5.9800   20.2510   44.8370 N.am   94  GLU94      -0.1963
     72  CA        -5.3660   19.8370   43.5760 C.3    94  GLU94       0.1733
     73  C         -3.8740   20.1650   43.4620 C.2    94  GLU94       0.2616
     74  O         -3.0490   19.2580   43.2950 O.2    94  GLU94      -0.2715
     75  CB        -6.1120   20.4800   42.4000 C.3    94  GLU94       0.0429
     76  CG        -5.7820   19.8170   41.0570 C.3    94  GLU94       0.1163
     77  CD        -6.3040   20.5750   39.8450 C.2    94  GLU94       0.3649
     78  OE1       -7.1770   21.4620   40.0020 O.co2  94  GLU94      -0.2457
     79  OE2       -5.8200   20.2790   38.7270 O.co2  94  GLU94      -0.2457
     80  N         -3.5390   21.4600   43.4960 N.am   95  ASN95      -0.1958
     81  CA        -2.2060   21.9230   43.0610 C.3    95  ASN95       0.1819
     82  C         -1.6050   23.1100   43.8120 C.2    95  ASN95       0.2621
     83  O         -0.5520   23.6120   43.4160 O.2    95  ASN95      -0.2715
     84  CB        -2.2410   22.2460   41.5640 C.3    95  ASN95       0.1195
     85  CG        -3.3120   23.2650   41.1980 C.2    95  ASN95       0.2630
     86  OD1       -3.9980   23.7920   42.0580 O.2    95  ASN95      -0.2716
     87  ND2       -3.4820   23.5060   39.8980 N.am   95  ASN95      -0.0877
     88  N         -2.2500   23.5310   44.9010 N.am   96  LEU96      -0.1977
     89  CA        -1.8630   24.7420   45.6620 C.3    96  LEU96       0.1596
     90  C         -1.9200   26.0340   44.8430 C.2    96  LEU96       0.2287
     91  O         -1.1940   26.9900   45.1220 O.2    96  LEU96      -0.2864
     92  CB        -0.4780   24.5860   46.3200 C.3    96  LEU96       0.0297
     93  CG        -0.2750   23.3440   47.1860 C.3    96  LEU96       0.0022
     94  CD1        1.2290   23.1300   47.5720 C.3    96  LEU96       0.0001
     95  CD2       -1.1600   23.4060   48.3990 C.3    96  LEU96       0.0001
     96  N          1.7790   17.4570   38.0090 N.3   171  ILE171     -0.1245
     97  CA         0.9020   18.4750   38.5910 C.3   171  ILE171      0.1561
     98  C          0.4990   19.5140   37.5390 C.2   171  ILE171      0.2260
     99  O          1.3200   19.9510   36.7270 O.2   171  ILE171     -0.2867
    100  CB         1.5830   19.2110   39.7820 C.3   171  ILE171      0.0252
    101  CG1        2.0400   18.2180   40.8630 C.3   171  ILE171      0.0019
    102  CG2        0.6430   20.2030   40.4020 C.3   171  ILE171      0.0019
    103  CD1        0.9160   17.2850   41.3760 C.3   171  ILE171      0.0001
    104  N         13.4860   23.4990   50.5320 N.3   193  CYS193     -0.1221
    105  CA        13.1140   22.1980   51.0970 C.3   193  CYS193      0.1808
    106  C         12.2410   22.4220   52.3350 C.2   193  CYS193      0.2601
    107  O         12.0550   23.5500   52.7620 O.2   193  CYS193     -0.2717
    108  CB        14.3710   21.4130   51.4650 C.3   193  CYS193      0.0970
    109  SG        14.1700   19.5640   51.4980 S.3   193  CYS193     -0.0800
    110  N         11.7360   21.3390   52.9210 N.am  194  GLU194     -0.1979
    111  CA        10.7830   21.4040   54.0200 C.3   194  GLU194      0.1602
    112  C         11.2610   22.3530   55.1280 C.2   194  GLU194      0.2287
    113  O         12.4080   22.2840   55.5700 O.2   194  GLU194     -0.2864
    114  CB        10.5110   19.9850   54.5550 C.3   194  GLU194      0.0415
    115  CG         9.6740   19.9020   55.8250 C.3   194  GLU194      0.1163
    116  CD         8.1850   20.2090   55.6450 C.2   194  GLU194      0.3649
    117  OE1        7.5550   20.6010   56.6590 O.co2 194  GLU194     -0.2457
    118  OE2        7.6300   20.0530   54.5310 O.co2 194  GLU194     -0.2457
    119  N          9.1050   26.7690   53.1240 N.3   197  SER197     -0.1217
    120  CA         7.9100   27.2310   52.4300 C.3   197  SER197      0.1889
    121  C          7.2960   28.4260   53.1670 C.2   197  SER197      0.2288
    122  O          7.4870   28.5970   54.3610 O.2   197  SER197     -0.2866
    123  CB         6.9150   26.0820   52.1890 C.3   197  SER197      0.2089
    124  OG         6.1040   25.9330   53.3230 O.3   197  SER197     -0.2183
    125  N          6.3910   27.7030   47.6120 N.3   218  SER218     -0.1202
    126  CA         5.1130   27.0030   47.6280 C.3   218  SER218      0.2020
    127  C          5.2850   25.4840   47.6790 C.2   218  SER218      0.2619
    128  O          4.8880   24.8550   48.6380 O.2   218  SER218     -0.2717
    129  CB         4.2590   27.4120   46.4120 C.3   218  SER218      0.2103
    130  OG         2.9320   26.9040   46.5120 O.3   218  SER218     -0.2182
    131  N          5.8700   24.8850   46.6520 N.am  219  TRP219     -0.1961
    132  CA         6.0610   23.4290   46.6540 C.3   219  TRP219      0.1771
    133  C          7.1300   22.9210   45.7260 C.2   219  TRP219      0.2620
    134  O          7.5240   23.5840   44.7580 O.2   219  TRP219     -0.2715
    135  CB         4.7480   22.7010   46.2920 C.3   219  TRP219      0.0590
    136  CG         4.1710   23.0570   44.9510 C.ar  219  TRP219      0.0006
    137  CD1        3.3750   24.1260   44.6710 C.ar  219  TRP219      0.0946
    138  CD2        4.3370   22.3530   43.7130 C.ar  219  TRP219      0.0152
    139  NE1        3.0350   24.1300   43.3420 N.ar  219  TRP219     -0.2442
    140  CE2        3.6120   23.0560   42.7320 C.ar  219  TRP219      0.0810
    141  CE3        5.0340   21.2030   43.3350 C.ar  219  TRP219      0.0012
    142  CZ2        3.5290   22.6240   41.4020 C.ar  219  TRP219      0.0191
    143  CZ3        4.9640   20.7840   42.0010 C.ar  219  TRP219      0.0001
    144  CH2        4.2120   21.4860   41.0620 C.ar  219  TRP219      0.0015
    145  N          7.5880   21.7120   46.0410 N.am  220  GLY220     -0.1940
    146  CA         8.3540   20.9050   45.1010 C.3   220  GLY220      0.2014
    147  C          8.0370   19.4330   45.2930 C.2   220  GLY220      0.2639
    148  O          7.2720   19.0750   46.1660 O.2   220  GLY220     -0.2714
    149  N          8.6370   18.6020   44.4520 N.am  221  GLU221     -0.1963
    150  CA         8.5960   17.1600   44.5570 C.3   221  GLU221      0.1733
    151  C         10.0110   16.6650   44.9330 C.2   221  GLU221      0.2616
    152  O         10.9180   16.6210   44.1110 O.2   221  GLU221     -0.2715
    153  CB         8.0730   16.5910   43.2380 C.3   221  GLU221      0.0429
    154  CG         6.6970   17.1780   42.8880 C.3   221  GLU221      0.1163
    155  CD         6.1470   16.7820   41.5160 C.2   221  GLU221      0.3649
    156  OE1        6.4920   17.4200   40.4830 O.co2 221  GLU221     -0.2457
    157  OE2        5.3060   15.8610   41.5010 O.co2 221  GLU221     -0.2457
    158  N         10.1910   16.3320   46.2050 N.am  222  GLY222     -0.1955
    159  CA        11.5280   16.2030   46.7740 C.3   222  GLY222      0.1869
    160  C         12.2060   17.5630   46.8680 C.2   222  GLY222      0.2309
    161  O         11.5490   18.5970   46.7880 O.2   222  GLY222     -0.2863
@<TRIPOS>BOND
     1    99    98    2
     2    98    97    1
     3    96    97    1
     4    97   100    1
     5    79    77   ar
     6   100   102    1
     7   100   101    1
     8    77    78   ar
     9    77    76    1
    10    87    85   am
    11   156   155   ar
    12   101   103    1
    13    76    75    1
    14   144   142   ar
    15   144   143   ar
    16    85    84    1
    17    85    86    2
    18   142   140   ar
    19   157   155   ar
    20   155   154    1
    21    84    81    1
    22   143   141   ar
    23    75    72    1
    24   140   139   ar
    25   140   138   ar
    26   154   153    1
    27    81    80    1
    28    81    82    1
    29   153   150    1
    30    74    73    2
    31   141   138   ar
    32   139   137   ar
    33    83    82    2
    34    73    80   am
    35    73    72    1
    36    72    71    1
    37   138   136   ar
    38    82    88   am
    39   152   151    2
    40   149   150    1
    41   149   147   am
    42   150   151    1
    43   137   136   ar
    44   134   133    2
    45    71    62   am
    46    90    91    2
    47    90    89    1
    48    88    89    1
    49   151   158   am
    50   136   135    1
    51   146   147    1
    52   146   145    1
    53   147   148    2
    54    63    62    2
    55    89    92    1
    56   133   145   am
    57   133   132    1
    58    62    61    1
    59   158   159    1
    60   135   132    1
    61    92    93    1
    62   129   130    1
    63   129   126    1
    64    64    61    1
    65    64    65    1
    66   131   132    1
    67   131   127   am
    68   159   160    1
    69   161   160    2
    70    61    60    1
    71    66    65    1
    72    66    67    1
    73    93    94    1
    74    93    95    1
    75    60    48   am
    76   125   126    1
    77   126   127    1
    78   127   128    2
    79    46    47    1
    80    48    49    2
    81    48    47    1
    82    67    68    2
    83    69    68    1
    84    47    50    1
    85    68    70    1
    86    50    51    1
    87    22    21    1
    88   104   105    1
    89    51    52   ar
    90    51    53   ar
    91    52    54   ar
    92    56    53   ar
    93    56    58   ar
    94    53    55   ar
    95    19    21   ar
    96    19    17   ar
    97     7     9   ar
    98     7     6   ar
    99   105   108    1
   100   105   106    1
   101    58    59   ar
   102     9    10   ar
   103    54    55   ar
   104    21    20   ar
   105    55    57   ar
   106   108   109    1
   107    59    57   ar
   108     6     5    1
   109     6     8   ar
   110    17    16   ar
   111     5     2    1
   112   123   120    1
   113   123   124    1
   114    10     8   ar
   115   106   107    2
   116   106   110   am
   117   120   119    1
   118   120   121    1
   119    20    18   ar
   120     1     2    1
   121   110   111    1
   122    34    36   ar
   123    34    32   ar
   124   121   122    2
   125     2     3    1
   126    16    18   ar
   127    16    15    1
   128    36    35   ar
   129    31    32   ar
   130    31    29   ar
   131    32    30   ar
   132   111   114    1
   133   111   112    1
   134    15    12    1
   135   118   116   ar
   136     3     4    2
   137   114   115    1
   138    35    33   ar
   139    29    28   ar
   140    12    13    1
   141    12    11    1
   142    30    33   ar
   143    30    28   ar
   144   112   113    2
   145    13    14    2
   146    28    27    1
   147   116   115    1
   148   116   117   ar
   149    23    24    1
   150    27    24    1
   151    24    25    1
   152    45    44    1
   153    43    44    1
   154    43    42    1
   155    40    39    2
   156    25    26    2
   157    41    42    1
   158    41    38    1
   159    37    38    1
   160    39    38    1
