@<TRIPOS>MOLECULE
tmp/2c94A00.pdb
 134 132 0 0 0
SMALL
GASTEIGER

@<TRIPOS>ATOM
      1  N         36.5000   -7.9890    9.2720 N.3    11  SER11      -0.1217
      2  CA        36.5010   -6.6850    8.6380 C.3    11  SER11       0.1889
      3  C         35.9520   -6.8670    7.2230 C.2    11  SER11       0.2288
      4  O         35.9340   -7.9870    6.7170 O.2    11  SER11      -0.2866
      5  CB        37.9350   -6.1370    8.6490 C.3    11  SER11       0.2089
      6  OG        38.0650   -5.0180    7.8030 O.3    11  SER11      -0.2183
      7  N         36.6820   -4.6140    4.4590 N.3    13  TRP13      -0.1227
      8  CA        37.4050   -3.7870    3.4970 C.3    13  TRP13       0.1737
      9  C         37.9560   -5.0340    2.8130 C.2    13  TRP13       0.2595
     10  O         38.5720   -5.8740    3.4700 O.2    13  TRP13      -0.2718
     11  CB        38.7810   -3.4050    4.0290 C.3    13  TRP13       0.0564
     12  CG        38.6860   -1.9210    4.0340 C.ar   13  TRP13       0.0003
     13  CD1       37.9300   -1.1390    4.8710 C.ar   13  TRP13       0.0946
     14  CD2       39.3840   -1.0230    3.1680 C.ar   13  TRP13       0.0152
     15  NE1       38.1130    0.1930    4.5710 N.ar   13  TRP13      -0.2442
     16  CE2       39.0020    0.2920    3.5310 C.ar   13  TRP13       0.0810
     17  CE3       40.2970   -1.2000    2.1180 C.ar   13  TRP13       0.0012
     18  CZ2       39.4970    1.4190    2.8780 C.ar   13  TRP13       0.0191
     19  CZ3       40.7890   -0.0830    1.4750 C.ar   13  TRP13       0.0001
     20  CH2       40.3840    1.2120    1.8510 C.ar   13  TRP13       0.0015
     21  N         37.7290   -5.1590    1.5080 N.am   14  HIS14      -0.1975
     22  CA        38.3050   -6.2660    0.7360 C.3    14  HIS14       0.1656
     23  C         37.2820   -7.4000    0.7970 C.2    14  HIS14       0.2291
     24  O         37.5950   -8.5080    1.2440 O.2    14  HIS14      -0.2864
     25  CB        39.7200   -6.8170    0.5000 C.3    14  HIS14       0.0771
     26  CG        40.7850   -5.7630    0.4450 C.ar   14  HIS14       0.0820
     27  ND1       41.1910   -5.1740   -0.7340 N.ar   14  HIS14      -0.2267
     28  CD2       41.5250   -5.1880    1.4250 C.ar   14  HIS14       0.1154
     29  CE1       42.1310   -4.2810   -0.4790 C.ar   14  HIS14       0.1986
     30  NE2       42.3500   -4.2680    0.8240 N.ar   14  HIS14      -0.2212
     31  N         33.7370   -2.6210    9.3940 N.3    43  LEU43      -0.1231
     32  CA        34.1420   -2.0690    8.1010 C.3    43  LEU43       0.1693
     33  C         35.6300   -2.2360    7.7780 C.2    43  LEU43       0.2593
     34  O         35.9860   -2.7530    6.7100 O.2    43  LEU43      -0.2718
     35  CB        33.6450   -0.6340    7.9480 C.3    43  LEU43       0.0284
     36  CG        32.1670   -0.6590    7.5230 C.3    43  LEU43       0.0019
     37  CD1       31.5070    0.6850    7.7190 C.3    43  LEU43       0.0001
     38  CD2       32.0110   -1.1080    6.0710 C.3    43  LEU43       0.0001
     39  N         36.4960   -1.8120    8.6940 N.am   44  GLY44      -0.1942
     40  CA        37.9410   -1.9210    8.4850 C.3    44  GLY44       0.2014
     41  C         38.6470   -2.6440    9.6130 C.2    44  GLY44       0.2639
     42  O         38.0660   -2.8600   10.6790 O.2    44  GLY44      -0.2714
     43  N         39.9080   -3.0140    9.3850 N.am   45  ALA45      -0.1963
     44  CA        40.6990   -3.6810   10.4240 C.3    45  ALA45       0.1728
     45  C         40.8570   -2.8520   11.7010 C.2    45  ALA45       0.2616
     46  O         40.9070   -3.4120   12.7930 O.2    45  ALA45      -0.2715
     47  CB        42.0650   -4.1090    9.8850 C.3    45  ALA45       0.0334
     48  N         40.9160   -1.5240   11.5710 N.am   46  ILE46      -0.1963
     49  CA        41.0830   -0.6750   12.7600 C.3    46  ILE46       0.1727
     50  C         39.8960   -0.8200   13.7270 C.2    46  ILE46       0.2616
     51  O         40.0540   -0.6520   14.9350 O.2    46  ILE46      -0.2715
     52  CB        41.3570    0.8100   12.3940 C.3    46  ILE46       0.0290
     53  CG1       42.7490    0.9350   11.7580 C.3    46  ILE46       0.0022
     54  CG2       41.2620    1.7100   13.6260 C.3    46  ILE46       0.0023
     55  CD1       43.1440    2.3470   11.3630 C.3    46  ILE46       0.0001
     56  N         38.7220   -1.1610   13.1890 N.am   47  GLU47      -0.1977
     57  CA        37.5130   -1.3150   14.0120 C.3    47  GLU47       0.1602
     58  C         37.4670   -2.6530   14.7650 C.2    47  GLU47       0.2287
     59  O         36.6480   -2.8410   15.6670 O.2    47  GLU47      -0.2864
     60  CB        36.2560   -1.1380   13.1570 C.3    47  GLU47       0.0415
     61  CG        35.9600    0.3270   12.7950 C.3    47  GLU47       0.1163
     62  CD        37.0090    0.9400   11.8870 C.2    47  GLU47       0.3649
     63  OE1       37.2350    0.3990   10.7830 O.co2  47  GLU47      -0.2457
     64  OE2       37.6070    1.9700   12.2730 O.co2  47  GLU47      -0.2457
     65  N         41.8260   -8.0780    5.9110 N.3    67  VAL67      -0.1231
     66  CA        42.8260   -8.0220    4.8480 C.3    67  VAL67       0.1692
     67  C         43.3780   -6.6080    4.7500 C.2    67  VAL67       0.2592
     68  O         42.6220   -5.6610    4.5310 O.2    67  VAL67      -0.2718
     69  CB        42.2160   -8.4080    3.4780 C.3    67  VAL67       0.0266
     70  CG1       43.3050   -8.5200    2.4120 C.3    67  VAL67       0.0020
     71  CG2       41.4260   -9.7130    3.5860 C.3    67  VAL67       0.0020
     72  N         44.6900   -6.4700    4.9320 N.am   68  VAL68      -0.1966
     73  CA        45.3660   -5.1900    4.7320 C.3    68  VAL68       0.1727
     74  C         46.4490   -5.3690    3.6640 C.2    68  VAL68       0.2616
     75  O         47.3380   -6.2140    3.7990 O.2    68  VAL68      -0.2715
     76  CB        45.9680   -4.6230    6.0460 C.3    68  VAL68       0.0290
     77  CG1       46.3500   -3.1710    5.8660 C.3    68  VAL68       0.0023
     78  CG2       44.9760   -4.7660    7.2200 C.3    68  VAL68       0.0023
     79  N         46.3550   -4.5840    2.5970 N.am   69  ILE69      -0.1977
     80  CA        47.2780   -4.7090    1.4780 C.3    69  ILE69       0.1596
     81  C         47.9980   -3.3860    1.2670 C.2    69  ILE69       0.2287
     82  O         47.3530   -2.3360    1.1720 O.2    69  ILE69      -0.2864
     83  CB        46.5350   -5.1190    0.1890 C.3    69  ILE69       0.0276
     84  CG1       45.7950   -6.4510    0.4020 C.3    69  ILE69       0.0022
     85  CG2       47.5080   -5.1950   -0.9990 C.3    69  ILE69       0.0022
     86  CD1       44.7600   -6.7540   -0.6630 C.3    69  ILE69       0.0001
     87  N         49.8280   -0.1960   -0.1980 N.3    71  GLY71      -0.1210
     88  CA        49.6470    0.5950   -1.4050 C.3    71  GLY71       0.1956
     89  C         50.8200    1.5300   -1.5860 C.2    71  GLY71       0.2612
     90  O         51.9750    1.1180   -1.4450 O.2    71  GLY71      -0.2717
     91  N         50.5190    2.7960   -1.8600 N.am   72  GLN72      -0.1965
     92  CA        51.5400    3.7760   -2.2240 C.3    72  GLN72       0.1733
     93  C         52.0030    4.6250   -1.0450 C.2    72  GLN72       0.2617
     94  O         53.0320    5.2970   -1.1350 O.2    72  GLN72      -0.2715
     95  CB        51.0210    4.6920   -3.3410 C.3    72  GLN72       0.0408
     96  CG        50.5670    3.9700   -4.6040 C.3    72  GLN72       0.0908
     97  CD        51.7140    3.2940   -5.3370 C.2    72  GLN72       0.2608
     98  OE1       52.1230    2.1820   -4.9910 O.2    72  GLN72      -0.2717
     99  NE2       52.2320    3.9610   -6.3630 N.am   72  GLN72      -0.0878
    100  N         51.2350    4.6090    0.0430 N.am   73  THR73      -0.1951
    101  CA        51.5130    5.4670    1.1990 C.3    73  THR73       0.1897
    102  C         51.8830    4.6320    2.4320 C.2    73  THR73       0.2313
    103  O         51.6750    3.4120    2.4410 O.2    73  THR73      -0.2863
    104  CB        50.3070    6.3880    1.5550 C.3    73  THR73       0.1794
    105  OG1       49.3420    5.6450    2.3100 O.3    73  THR73      -0.2208
    106  CG2       49.6520    6.9840    0.2940 C.3    73  THR73       0.0378
    107  N         50.2620    4.4450    5.0340 N.3    75  HIS75      -0.1226
    108  CA        49.0050    4.0250    5.6920 C.3    75  HIS75       0.1752
    109  C         48.9520    2.5650    6.1300 C.2    75  HIS75       0.2596
    110  O         48.4720    2.2620    7.2280 O.2    75  HIS75      -0.2718
    111  CB        47.8020    4.2640    4.7820 C.3    75  HIS75       0.0759
    112  CG        47.1670    5.6040    4.9510 C.ar   75  HIS75       0.0818
    113  ND1       46.6290    6.0250    6.1490 N.ar   75  HIS75      -0.2268
    114  CD2       46.9460    6.6040    4.0630 C.ar   75  HIS75       0.1154
    115  CE1       46.1220    7.2380    5.9930 C.ar   75  HIS75       0.1986
    116  NE2       46.3060    7.6130    4.7390 N.ar   75  HIS75      -0.2212
    117  N         49.3850    1.6700    5.2390 N.am   76  PHE76      -0.1976
    118  CA        49.4840    0.2420    5.5320 C.3    76  PHE76       0.1639
    119  C         50.1470   -0.0140    6.8900 C.2    76  PHE76       0.2290
    120  O         49.5860   -0.7220    7.7340 O.2    76  PHE76      -0.2864
    121  CB        50.2620   -0.4700    4.4150 C.3    76  PHE76       0.0560
    122  CG        50.5560   -1.9260    4.6970 C.ar   76  PHE76      -0.0200
    123  CD1       49.6160   -2.9130    4.4080 C.ar   76  PHE76      -0.0042
    124  CD2       51.7870   -2.3110    5.2220 C.ar   76  PHE76      -0.0042
    125  CE1       49.8950   -4.2580    4.6540 C.ar   76  PHE76      -0.0003
    126  CE2       52.0690   -3.6530    5.4800 C.ar   76  PHE76      -0.0003
    127  CZ        51.1210   -4.6230    5.1960 C.ar   76  PHE76      -0.0000
    128  N         47.9200    1.0930    9.8930 N.3    79  VAL79      -0.1245
    129  CA        46.7750    0.1900   10.0390 C.3    79  VAL79       0.1561
    130  C         47.2190   -1.0920   10.7290 C.2    79  VAL79       0.2260
    131  O         46.6000   -1.5170   11.7080 O.2    79  VAL79      -0.2867
    132  CB        46.0590   -0.1200    8.6920 C.3    79  VAL79       0.0252
    133  CG1       45.0520   -1.2570    8.8550 C.3    79  VAL79       0.0019
    134  CG2       45.3510    1.1210    8.1700 C.3    79  VAL79       0.0019
@<TRIPOS>BOND
     1    99    97   am
     2    97    98    2
     3    97    96    1
     4    96    95    1
     5    95    92    1
     6    92    91    1
     7    92    93    1
     8    91    89   am
     9    89    90    2
    10    89    88    1
    11    88    87    1
    12    94    93    2
    13    93   100   am
    14    85    83    1
    15    27    29   ar
    16    27    26   ar
    17    86    84    1
    18    29    30   ar
    19   100   101    1
    20    83    84    1
    21    83    80    1
    22   106   104    1
    23    26    25    1
    24    26    28   ar
    25    25    22    1
    26    22    23    1
    27    22    21    1
    28    23    24    2
    29    30    28   ar
    30    82    81    2
    31   101   104    1
    32   101   102    1
    33    81    80    1
    34    19    20   ar
    35    19    17   ar
    36    80    79    1
    37    21     9   am
    38   104   105    1
    39    20    18   ar
    40    17    14   ar
    41    70    69    1
    42   102   103    2
    43    79    74   am
    44     9    10    2
    45     9     8    1
    46    18    16   ar
    47    14    16   ar
    48    14    12   ar
    49    69    71    1
    50    69    66    1
    51     8    11    1
    52     8     7    1
    53    16    15   ar
    54    74    75    2
    55    74    73    1
    56    11    12    1
    57    12    13   ar
    58   114   116   ar
    59   114   112   ar
    60   123   125   ar
    61   123   122   ar
    62   121   122    1
    63   121   118    1
    64    68    67    2
    65    15    13   ar
    66   125   127   ar
    67   122   124   ar
    68    73    72    1
    69    73    76    1
    70   116   115   ar
    71    67    66    1
    72    67    72   am
    73   111   112    1
    74   111   108    1
    75    66    65    1
    76   112   113   ar
    77   107   108    1
    78   127   126   ar
    79   124   126   ar
    80   117   118    1
    81   117   109   am
    82   118   119    1
    83   108   109    1
    84    77    76    1
    85   115   113   ar
    86    76    78    1
    87    38    36    1
    88   109   110    2
    89    34    33    2
    90     4     3    2
    91   119   120    2
    92     3     2    1
    93    36    37    1
    94    36    35    1
    95    33    32    1
    96    33    39   am
    97     6     5    1
    98    35    32    1
    99    32    31    1
   100   134   132    1
   101    40    39    1
   102    40    41    1
   103     2     5    1
   104     2     1    1
   105   132   133    1
   106   132   129    1
   107    43    41   am
   108    43    44    1
   109    41    42    2
   110    47    44    1
   111   128   129    1
   112   129   130    1
   113    44    45    1
   114   130   131    2
   115    63    62   ar
   116    55    53    1
   117    48    45   am
   118    48    49    1
   119    45    46    2
   120    53    52    1
   121    62    64   ar
   122    62    61    1
   123    52    49    1
   124    52    54    1
   125    49    50    1
   126    61    60    1
   127    60    57    1
   128    56    50   am
   129    56    57    1
   130    50    51    2
   131    57    58    1
   132    58    59    2
