@<TRIPOS>MOLECULE
tmp/2c97A00.pdb
 117 115 0 0 0
SMALL
GASTEIGER

@<TRIPOS>ATOM
      1  N        -29.5960   -8.0830    9.1700 N.3    12  SER12      -0.1217
      2  CA       -29.7760   -6.8040    8.4720 C.3    12  SER12       0.1889
      3  C        -30.3000   -7.0010    7.0440 C.2    12  SER12       0.2288
      4  O        -30.5910   -8.1280    6.6460 O.2    12  SER12      -0.2866
      5  CB       -28.5290   -5.9000    8.5440 C.3    12  SER12       0.2089
      6  OG       -27.3650   -6.5610    8.1120 O.3    12  SER12      -0.2183
      7  N        -29.1720   -4.5850    4.2150 N.3    14  TRP14      -0.1227
      8  CA       -28.3650   -3.7330    3.3110 C.3    14  TRP14       0.1737
      9  C        -27.9700   -4.3030    1.9410 C.2    14  TRP14       0.2595
     10  O        -27.7240   -3.5380    1.0120 O.2    14  TRP14      -0.2718
     11  CB       -27.0830   -3.2690    3.9940 C.3    14  TRP14       0.0564
     12  CG       -26.6300   -1.9160    3.4930 C.ar   14  TRP14       0.0003
     13  CD1      -25.8280   -1.6450    2.3940 C.ar   14  TRP14       0.0946
     14  CD2      -26.9630   -0.6420    4.0660 C.ar   14  TRP14       0.0152
     15  NE1      -25.6450   -0.2790    2.2650 N.ar   14  TRP14      -0.2442
     16  CE2      -26.3260    0.3570    3.2750 C.ar   14  TRP14       0.0810
     17  CE3      -27.7290   -0.2460    5.1740 C.ar   14  TRP14       0.0012
     18  CZ2      -26.4430    1.7280    3.5650 C.ar   14  TRP14       0.0191
     19  CZ3      -27.8410    1.1150    5.4620 C.ar   14  TRP14       0.0001
     20  CH2      -27.2000    2.0860    4.6610 C.ar   14  TRP14       0.0015
     21  N        -27.8460   -5.6200    1.8240 N.am   15  HIS15      -0.1975
     22  CA       -27.6900   -6.2480    0.5130 C.3    15  HIS15       0.1656
     23  C        -28.6370   -7.4450    0.4860 C.2    15  HIS15       0.2291
     24  O        -28.2400   -8.5770    0.7840 O.2    15  HIS15      -0.2864
     25  CB       -26.2290   -6.6650    0.2520 C.3    15  HIS15       0.0771
     26  CG       -25.2210   -5.5800    0.5160 C.ar   15  HIS15       0.0820
     27  ND1      -24.7230   -4.7610   -0.4790 N.ar   15  HIS15      -0.2267
     28  CD2      -24.6170   -5.1820    1.6640 C.ar   15  HIS15       0.1154
     29  CE1      -23.8670   -3.9010    0.0450 C.ar   15  HIS15       0.1986
     30  NE2      -23.7820   -4.1380    1.3430 N.ar   15  HIS15      -0.2212
     31  N        -29.2820   -2.0020    8.6180 N.3    45  GLY45      -0.1210
     32  CA       -27.8600   -2.2220    8.4050 C.3    45  GLY45       0.1956
     33  C        -27.1720   -2.7950    9.6120 C.2    45  GLY45       0.2612
     34  O        -27.7700   -2.9060   10.6920 O.2    45  GLY45      -0.2717
     35  N        -25.9010   -3.1480    9.4270 N.am   46  ALA46      -0.1965
     36  CA       -25.0620   -3.6930   10.4970 C.3    46  ALA46       0.1728
     37  C        -25.0150   -2.8090   11.7680 C.2    46  ALA46       0.2616
     38  O        -24.9550   -3.3200   12.8870 O.2    46  ALA46      -0.2715
     39  CB       -23.6760   -3.9450    9.9760 C.3    46  ALA46       0.0334
     40  N        -25.0720   -1.4930   11.5950 N.am   47  ILE47      -0.1977
     41  CA       -24.9630   -0.5900   12.7310 C.3    47  ILE47       0.1596
     42  C        -26.1400   -0.7070   13.7130 C.2    47  ILE47       0.2287
     43  O        -26.0040   -0.4000   14.8980 O.2    47  ILE47      -0.2864
     44  CB       -24.6950    0.8620   12.2510 C.3    47  ILE47       0.0276
     45  CG1      -23.1890    1.0730   12.2020 C.3    47  ILE47       0.0022
     46  CG2      -25.2950    1.8950   13.2000 C.3    47  ILE47       0.0022
     47  CD1      -22.7590    2.0050   11.1540 C.3    47  ILE47       0.0001
     48  N        -23.9900   -7.9450    6.1960 N.3    68  VAL68      -0.1231
     49  CA       -23.0610   -7.8490    5.0840 C.3    68  VAL68       0.1692
     50  C        -22.5910   -6.4040    5.0000 C.2    68  VAL68       0.2592
     51  O        -23.3980   -5.4760    4.7620 O.2    68  VAL68      -0.2718
     52  CB       -23.7380   -8.1740    3.7330 C.3    68  VAL68       0.0266
     53  CG1      -22.7090   -8.2390    2.6090 C.3    68  VAL68       0.0020
     54  CG2      -24.5000   -9.4790    3.8080 C.3    68  VAL68       0.0020
     55  N        -21.2890   -6.2290    5.2040 N.am   69  VAL69      -0.1966
     56  CA       -20.6390   -4.9530    4.9930 C.3    69  VAL69       0.1727
     57  C        -19.5960   -5.1760    3.9000 C.2    69  VAL69       0.2616
     58  O        -18.7370   -6.0580    4.0270 O.2    69  VAL69      -0.2715
     59  CB       -19.9920   -4.4150    6.3100 C.3    69  VAL69       0.0290
     60  CG1      -19.4550   -3.0050    6.1240 C.3    69  VAL69       0.0023
     61  CG2      -20.9910   -4.4850    7.4960 C.3    69  VAL69       0.0023
     62  N        -19.7060   -4.4260    2.8020 N.am   70  ILE70      -0.1977
     63  CA       -18.7670   -4.5510    1.6860 C.3    70  ILE70       0.1596
     64  C        -18.1080   -3.1910    1.5010 C.2    70  ILE70       0.2287
     65  O        -18.7970   -2.1490    1.5450 O.2    70  ILE70      -0.2864
     66  CB       -19.4660   -4.9960    0.3570 C.3    70  ILE70       0.0276
     67  CG1      -20.2000   -6.3370    0.5310 C.3    70  ILE70       0.0022
     68  CG2      -18.4540   -5.0850   -0.7790 C.3    70  ILE70       0.0022
     69  CD1      -21.2940   -6.6290   -0.5240 C.3    70  ILE70       0.0001
     70  N        -16.6120    0.1940    0.2190 N.3    72  GLY72      -0.1210
     71  CA       -16.8550    1.1320   -0.8870 C.3    72  GLY72       0.1956
     72  C        -15.6380    1.9820   -1.2170 C.2    72  GLY72       0.2612
     73  O        -14.5030    1.5300   -1.0820 O.2    72  GLY72      -0.2717
     74  N        -15.8710    3.2200   -1.6330 N.am   73  GLN73      -0.1965
     75  CA       -14.8010    4.1160   -2.0690 C.3    73  GLN73       0.1733
     76  C        -14.1080    4.8910   -0.9340 C.2    73  GLN73       0.2617
     77  O        -13.0870    5.5420   -1.1640 O.2    73  GLN73      -0.2715
     78  CB       -15.3280    5.1180   -3.1200 C.3    73  GLN73       0.0408
     79  CG       -16.2000    4.5020   -4.2040 C.3    73  GLN73       0.0908
     80  CD       -16.7900    5.5100   -5.2070 C.2    73  GLN73       0.2608
     81  OE1      -16.7820    6.7420   -5.0040 O.2    73  GLN73      -0.2717
     82  NE2      -17.3160    4.9710   -6.3060 N.am   73  GLN73      -0.0878
     83  N        -14.6670    4.8410    0.2770 N.am   74  THR74      -0.1951
     84  CA       -14.1790    5.6670    1.3910 C.3    74  THR74       0.1897
     85  C        -13.7100    4.7930    2.5730 C.2    74  THR74       0.2313
     86  O        -13.8670    3.5680    2.5330 O.2    74  THR74      -0.2863
     87  CB       -15.2500    6.7140    1.8760 C.3    74  THR74       0.1794
     88  OG1      -16.3380    6.0390    2.5010 O.3    74  THR74      -0.2208
     89  CG2      -15.7880    7.5500    0.7450 C.3    74  THR74       0.0378
     90  N        -15.2190    4.6220    5.2270 N.3    76  HIS76      -0.1226
     91  CA       -16.4430    4.3070    5.9790 C.3    76  HIS76       0.1752
     92  C        -16.5920    2.8520    6.4320 C.2    76  HIS76       0.2596
     93  O        -16.9900    2.5870    7.5670 O.2    76  HIS76      -0.2718
     94  CB       -17.6900    4.7540    5.1990 C.3    76  HIS76       0.0759
     95  CG       -18.8870    4.9820    6.0690 C.ar   76  HIS76       0.0818
     96  ND1      -18.9780    6.0490    6.9430 N.ar   76  HIS76      -0.2268
     97  CD2      -20.0440    4.2830    6.2000 C.ar   76  HIS76       0.1154
     98  CE1      -20.1420    5.9970    7.5690 C.ar   76  HIS76       0.1986
     99  NE2      -20.8060    4.9360    7.1400 N.ar   76  HIS76      -0.2212
    100  N        -16.2920    1.9200    5.5330 N.am   77  PHE77      -0.1976
    101  CA       -16.2870    0.4950    5.8230 C.3    77  PHE77       0.1639
    102  C        -15.5290    0.1590    7.1190 C.2    77  PHE77       0.2290
    103  O        -16.0090   -0.6650    7.9220 O.2    77  PHE77      -0.2864
    104  CB       -15.6960   -0.2480    4.6320 C.3    77  PHE77       0.0560
    105  CG       -15.4210   -1.7140    4.8790 C.ar   77  PHE77      -0.0200
    106  CD1      -16.3930   -2.6750    4.6100 C.ar   77  PHE77      -0.0042
    107  CD2      -14.1650   -2.1420    5.3290 C.ar   77  PHE77      -0.0042
    108  CE1      -16.1250   -4.0410    4.8080 C.ar   77  PHE77      -0.0003
    109  CE2      -13.8970   -3.4990    5.5370 C.ar   77  PHE77      -0.0003
    110  CZ       -14.8820   -4.4500    5.2730 C.ar   77  PHE77      -0.0000
    111  N        -17.6580    1.2820   10.1280 N.3    80  VAL80      -0.1245
    112  CA       -18.8460    0.4540   10.2520 C.3    80  VAL80       0.1561
    113  C        -18.4710   -0.8800   10.8940 C.2    80  VAL80       0.2260
    114  O        -19.1300   -1.3290   11.8200 O.2    80  VAL80      -0.2867
    115  CB       -19.5760    0.2920    8.8940 C.3    80  VAL80       0.0252
    116  CG1      -20.6650   -0.7730    8.9540 C.3    80  VAL80       0.0019
    117  CG2      -20.1960    1.6200    8.5060 C.3    80  VAL80       0.0019
@<TRIPOS>BOND
     1    82    80   am
     2    80    81    2
     3    80    79    1
     4    79    78    1
     5    78    75    1
     6    75    74    1
     7    75    76    1
     8    74    72   am
     9    72    73    2
    10    72    71    1
    11    77    76    2
    12    76    83   am
    13    71    70    1
    14    68    66    1
    15    69    67    1
    16    27    29   ar
    17    27    26   ar
    18    29    30   ar
    19    25    22    1
    20    25    26    1
    21    83    84    1
    22    66    67    1
    23    66    63    1
    24    23    22    1
    25    23    24    2
    26    22    21    1
    27    26    28   ar
    28    89    87    1
    29    10     9    2
    30    30    28   ar
    31    84    87    1
    32    84    85    1
    33    64    65    2
    34    64    63    1
    35    63    62    1
    36    21     9   am
    37    87    88    1
    38     9     8    1
    39    15    13   ar
    40    15    16   ar
    41    13    12   ar
    42    86    85    2
    43    53    52    1
    44    62    57   am
    45    16    18   ar
    46    16    14   ar
    47     8    11    1
    48     8     7    1
    49    12    11    1
    50    12    14   ar
    51    18    20   ar
    52    52    54    1
    53    52    49    1
    54    57    58    2
    55    57    56    1
    56    14    17   ar
    57   106   108   ar
    58   106   105   ar
    59   104   105    1
    60   104   101    1
    61    20    19   ar
    62    51    50    2
    63   108   110   ar
    64   105   107   ar
    65    56    55    1
    66    56    59    1
    67    50    49    1
    68    50    55   am
    69    49    48    1
    70    17    19   ar
    71    94    91    1
    72    94    95    1
    73    90    91    1
    74   110   109   ar
    75   107   109   ar
    76   100   101    1
    77   100    92   am
    78   101   102    1
    79    91    92    1
    80    95    97   ar
    81    95    96   ar
    82    60    59    1
    83    97    99   ar
    84    59    61    1
    85    92    93    2
    86     4     3    2
    87    96    98   ar
    88     3     2    1
    89   102   103    2
    90    99    98   ar
    91     6     5    1
    92    32    31    1
    93    32    33    1
    94     2     5    1
    95     2     1    1
    96   117   115    1
    97   115   116    1
    98   115   112    1
    99    35    33   am
   100    35    36    1
   101    33    34    2
   102    39    36    1
   103   111   112    1
   104   112   113    1
   105    36    37    1
   106   113   114    2
   107    47    45    1
   108    40    37   am
   109    40    41    1
   110    37    38    2
   111    45    44    1
   112    44    41    1
   113    44    46    1
   114    41    42    1
   115    42    43    2
