@<TRIPOS>MOLECULE
tmp/2c97A01.pdb
 70 64 0 0 0
SMALL
GASTEIGER

@<TRIPOS>ATOM
      1  N        -17.3880   -1.4860   10.4320 N.3    81  CYS81      -0.1235
      2  CA       -16.9510   -2.7620   10.9870 C.3    81  CYS81       0.1677
      3  C        -16.4640   -2.6540   12.4380 C.2    81  CYS81       0.2270
      4  O        -16.7210   -3.5740   13.2360 O.2    81  CYS81      -0.2867
      5  CB       -15.9020   -3.4090   10.0850 C.3    81  CYS81       0.0956
      6  SG       -16.5370   -3.8980    8.4470 S.3    81  CYS81      -0.0801
      7  N        -19.6440   -2.3050   14.7830 N.3    84  VAL84      -0.1231
      8  CA       -20.2830   -3.5970   14.9700 C.3    84  VAL84       0.1692
      9  C        -19.4520   -4.4990   15.8760 C.2    84  VAL84       0.2592
     10  O        -20.0080   -5.1500   16.7580 O.2    84  VAL84      -0.2718
     11  CB       -20.5860   -4.3100   13.6300 C.3    84  VAL84       0.0266
     12  CG1      -21.2860   -5.6410   13.8810 C.3    84  VAL84       0.0020
     13  CG2      -21.4790   -3.4400   12.7690 C.3    84  VAL84       0.0020
     14  N        -18.1350   -4.5350   15.6560 N.am   85  THR85      -0.1953
     15  CA       -17.2450   -5.3690   16.4580 C.3    85  THR85       0.1897
     16  C        -17.3430   -5.0090   17.9470 C.2    85  THR85       0.2313
     17  O        -17.5490   -5.8920   18.7840 O.2    85  THR85      -0.2863
     18  CB       -15.8000   -5.2600   15.9670 C.3    85  THR85       0.1794
     19  OG1      -15.6780   -5.9480   14.7170 O.3    85  THR85      -0.2208
     20  CG2      -14.8360   -5.8740   16.9550 C.3    85  THR85       0.0378
     21  N        -21.1830   -5.7350   19.3870 N.3    88  LEU88      -0.1231
     22  CA       -21.5280   -7.1450   19.6130 C.3    88  LEU88       0.1693
     23  C        -20.7270   -7.7160   20.7820 C.2    88  LEU88       0.2592
     24  O        -21.2960   -8.3820   21.6590 O.2    88  LEU88      -0.2718
     25  CB       -21.3660   -7.9860   18.3320 C.3    88  LEU88       0.0284
     26  CG       -22.3020   -7.6040   17.1720 C.3    88  LEU88       0.0019
     27  CD1      -22.2600   -8.6380   16.0560 C.3    88  LEU88       0.0001
     28  CD2      -23.7410   -7.4110   17.6460 C.3    88  LEU88       0.0001
     29  N        -19.4290   -7.3960   20.8070 N.am   89  THR89      -0.1953
     30  CA       -18.5430   -7.7770   21.9000 C.3    89  THR89       0.1897
     31  C        -19.0290   -7.2460   23.2580 C.2    89  THR89       0.2313
     32  O        -19.0790   -8.0040   24.2410 O.2    89  THR89      -0.2863
     33  CB       -17.0770   -7.3410   21.6270 C.3    89  THR89       0.1794
     34  OG1      -16.6320   -7.9660   20.4250 O.3    89  THR89      -0.2208
     35  CG2      -16.1620   -7.7880   22.7230 C.3    89  THR89       0.0378
     36  N        -23.0810  -14.1920   21.2640 N.3    99  ILE99      -0.1231
     37  CA       -23.5680  -13.4550   20.1090 C.3    99  ILE99       0.1692
     38  C        -22.7200  -13.9570   18.9600 C.2    99  ILE99       0.2592
     39  O        -21.5440  -13.5940   18.8520 O.2    99  ILE99      -0.2718
     40  CB       -23.4120  -11.9170   20.2590 C.3    99  ILE99       0.0266
     41  CG1      -24.0150  -11.4010   21.5740 C.3    99  ILE99       0.0019
     42  CG2      -23.9820  -11.1810   19.0330 C.3    99  ILE99       0.0020
     43  CD1      -25.4900  -11.7240   21.8150 C.3    99  ILE99       0.0001
     44  N        -23.2900  -14.8380   18.1450 N.am  100  ALA100     -0.1966
     45  CA       -22.5060  -15.5100   17.1100 C.3   100  ALA100      0.1728
     46  C        -22.2540  -14.6020   15.9010 C.2   100  ALA100      0.2616
     47  O        -23.1230  -13.8210   15.4850 O.2   100  ALA100     -0.2715
     48  CB       -23.1690  -16.8050   16.6810 C.3   100  ALA100      0.0334
     49  N        -21.0550  -14.7240   15.3460 N.am  101  ASN101     -0.1972
     50  CA       -20.5920  -13.8620   14.2800 C.3   101  ASN101      0.1688
     51  C        -20.9720  -14.3890   12.8970 C.2   101  ASN101      0.2292
     52  O        -20.3330  -15.3100   12.3730 O.2   101  ASN101     -0.2864
     53  CB       -19.0770  -13.6920   14.4030 C.3   101  ASN101      0.1181
     54  CG       -18.4310  -13.1480   13.1350 C.2   101  ASN101      0.2629
     55  OD1      -19.0180  -12.3140   12.4110 O.2   101  ASN101     -0.2716
     56  ND2      -17.2100  -13.6170   12.8580 N.am  101  ASN101     -0.0877
     57  N        -21.6390  -11.7910   10.5020 N.3   103  VAL103     -0.1245
     58  CA       -21.6200  -10.5340    9.7890 C.3   103  VAL103      0.1561
     59  C        -20.4630  -10.5800    8.8160 C.2   103  VAL103      0.2260
     60  O        -19.3020  -10.5990    9.2370 O.2   103  VAL103     -0.2867
     61  CB       -21.4730   -9.3490   10.7490 C.3   103  VAL103      0.0252
     62  CG1      -21.5270   -8.0370    9.9910 C.3   103  VAL103      0.0019
     63  CG2      -22.5730   -9.3960   11.7900 C.3   103  VAL103      0.0019
     64  N        -17.7970   -9.2080    6.3130 N.3   105  THR105     -0.1218
     65  CA       -17.0230   -7.9890    6.1570 C.3   105  THR105      0.1862
     66  C        -16.0620   -8.2050    5.0010 C.2   105  THR105      0.2287
     67  O        -14.9740   -8.7350    5.1890 O.2   105  THR105     -0.2866
     68  CB       -16.2280   -7.6680    7.4360 C.3   105  THR105      0.1770
     69  OG1      -15.3710   -8.7790    7.7590 O.3   105  THR105     -0.2211
     70  CG2      -17.1730   -7.3830    8.6020 C.3   105  THR105      0.0375
@<TRIPOS>BOND
     1    66    67    2
     2    66    65    1
     3    65    64    1
     4    65    68    1
     5    68    69    1
     6    68    70    1
     7     6     5    1
     8    59    60    2
     9    59    58    1
    10    58    57    1
    11    58    61    1
    12    62    61    1
    13     5     2    1
    14     1     2    1
    15    61    63    1
    16     2     3    1
    17    52    51    2
    18    55    54    2
    19     3     4    2
    20    13    11    1
    21    56    54   am
    22    51    50    1
    23    54    53    1
    24    11    12    1
    25    11     8    1
    26    50    53    1
    27    50    49    1
    28    19    18    1
    29     7     8    1
    30     8     9    1
    31    49    46   am
    32    47    46    2
    33    14     9   am
    34    14    15    1
    35     9    10    2
    36    46    45    1
    37    18    15    1
    38    18    20    1
    39    27    26    1
    40    15    16    1
    41    48    45    1
    42    45    44    1
    43    26    28    1
    44    26    25    1
    45    16    17    2
    46    44    38   am
    47    25    22    1
    48    39    38    2
    49    38    37    1
    50    42    40    1
    51    21    22    1
    52    22    23    1
    53    37    40    1
    54    37    36    1
    55    40    41    1
    56    34    33    1
    57    23    29   am
    58    23    24    2
    59    29    30    1
    60    41    43    1
    61    33    30    1
    62    33    35    1
    63    30    31    1
    64    31    32    2
