@<TRIPOS>MOLECULE
tmp/2c98A00.pdb
 156 149 0 0 0
SMALL
GASTEIGER

@<TRIPOS>ATOM
      1  N         45.4220  -14.5310   -6.8140 N.3     1  LEU1       -0.1231
      2  CA        44.6870  -13.9690   -5.6250 C.3     1  LEU1        0.1693
      3  C         45.7400  -13.6800   -4.5800 C.2     1  LEU1        0.2591
      4  O         46.7380  -14.4010   -4.4730 O.2     1  LEU1       -0.2718
      5  CB        43.6980  -14.9700   -5.0280 C.3     1  LEU1        0.0284
      6  CG        42.5230  -15.4790   -5.8520 C.3     1  LEU1        0.0019
      7  CD1       41.6480  -16.3850   -5.0380 C.3     1  LEU1        0.0001
      8  CD2       41.7030  -14.3250   -6.3930 C.3     1  LEU1        0.0001
      9  N         45.5180  -12.6460   -3.7840 N.am    2  LEU2       -0.1980
     10  CA        46.4970  -12.2500   -2.7840 C.3     2  LEU2        0.1596
     11  C         46.1460  -12.8530   -1.4510 C.2     2  LEU2        0.2287
     12  O         44.9740  -12.9900   -1.1140 O.2     2  LEU2       -0.2864
     13  CB        46.5450  -10.7300   -2.6680 C.3     2  LEU2        0.0297
     14  CG        46.8130   -9.9550   -3.9730 C.3     2  LEU2        0.0022
     15  CD1       46.6130   -8.4660   -3.8380 C.3     2  LEU2        0.0001
     16  CD2       48.2090  -10.2980   -4.5100 C.3     2  LEU2        0.0001
     17  N         42.7700  -17.9470    5.0610 N.3     8  PHE8       -0.1241
     18  CA        42.4820  -17.7690    3.6300 C.3     8  PHE8        0.1605
     19  C         42.9820  -18.9710    2.8110 C.2     8  PHE8        0.2264
     20  O         42.2890  -19.4660    1.9440 O.2     8  PHE8       -0.2867
     21  CB        43.1570  -16.5220    3.1200 C.3     8  PHE8        0.0534
     22  CG        42.9060  -16.2590    1.6520 C.ar    8  PHE8       -0.0203
     23  CD1       41.6030  -15.9520    1.2110 C.ar    8  PHE8       -0.0042
     24  CD2       43.9290  -16.3460    0.7300 C.ar    8  PHE8       -0.0042
     25  CE1       41.3340  -15.7350   -0.1590 C.ar    8  PHE8       -0.0003
     26  CE2       43.6680  -16.1300   -0.6320 C.ar    8  PHE8       -0.0003
     27  CZ        42.3870  -15.8170   -1.0660 C.ar    8  PHE8       -0.0000
     28  N         30.8600   -8.0050    3.3700 N.3    31  ARG31      -0.1231
     29  CA        31.0300   -7.3810    2.0700 C.3    31  ARG31       0.1694
     30  C         32.5100   -7.1450    1.7970 C.2    31  ARG31       0.2593
     31  O         33.2650   -6.8170    2.6960 O.2    31  ARG31      -0.2718
     32  CB        30.3020   -6.0340    2.0110 C.3    31  ARG31       0.0321
     33  CG        30.8470   -4.9470    2.8960 C.3    31  ARG31       0.0489
     34  CD        29.9570   -3.6940    2.8490 C.3    31  ARG31       0.2205
     35  NE        30.6110   -2.4760    3.3660 N.pl3  31  ARG31      -0.0865
     36  CZ        30.4230   -2.0320    4.5790 C.cat  31  ARG31       0.5346
     37  NH1       29.6130   -2.6460    5.4670 N.pl3  31  ARG31       0.1354
     38  NH2       31.0750   -0.9470    4.9230 N.pl3  31  ARG31       0.1354
     39  N         32.9050   -7.3270    0.5420 N.am   32  GLY32      -0.1942
     40  CA        34.2680   -7.1090    0.1190 C.3    32  GLY32       0.2014
     41  C         35.2980   -8.1410    0.4970 C.2    32  GLY32       0.2640
     42  O         36.5250   -7.8380    0.4310 O.2    32  GLY32      -0.2714
     43  N         34.8790   -9.3250    0.9390 N.am   33  THR33      -0.1936
     44  CA        35.8370  -10.3570    1.3610 C.3    33  THR33       0.2028
     45  C         36.1560  -11.3650    0.2960 C.2    33  THR33       0.2643
     46  O         36.9880  -12.2720    0.4950 O.2    33  THR33      -0.2714
     47  CB        35.3330  -11.1560    2.5870 C.3    33  THR33       0.1808
     48  OG1       34.0050  -11.6730    2.3310 O.3    33  THR33      -0.2208
     49  CG2       35.2090  -10.2820    3.8150 C.3    33  THR33       0.0379
     50  N         35.5030  -11.2380   -0.8270 N.am   34  GLY34      -0.1939
     51  CA        35.7430  -12.0820   -1.9950 C.3    34  GLY34       0.2014
     52  C         34.6920  -13.1460   -2.2240 C.2    34  GLY34       0.2639
     53  O         34.9950  -14.1650   -2.7910 O.2    34  GLY34      -0.2714
     54  N         33.4390  -12.8870   -1.8430 N.am   35  LYS35      -0.1963
     55  CA        32.3620  -13.8510   -2.0130 C.3    35  LYS35       0.1728
     56  C         32.0850  -14.2000   -3.4510 C.2    35  LYS35       0.2616
     57  O         32.0470  -15.3860   -3.8100 O.2    35  LYS35      -0.2715
     58  CB        31.0470  -13.3590   -1.3410 C.3    35  LYS35       0.0311
     59  CG        31.0580  -13.1090    0.1350 C.3    35  LYS35       0.0038
     60  CD        29.7260  -12.3130    0.5370 C.3    35  LYS35       0.0206
     61  CE        29.7860  -10.8580    0.1730 C.3    35  LYS35       0.1093
     62  NZ        28.3920  -10.0290    0.2410 N.3    35  LYS35      -0.1314
     63  N         31.9250  -13.1870   -4.2840 N.am   36  GLU36      -0.1963
     64  CA        31.7570  -13.4140   -5.7030 C.3    36  GLU36       0.1733
     65  C         32.9920  -14.0050   -6.3370 C.2    36  GLU36       0.2616
     66  O         32.8840  -14.8760   -7.2010 O.2    36  GLU36      -0.2715
     67  CB        31.3210  -12.1600   -6.4360 C.3    36  GLU36       0.0429
     68  CG        30.9510  -12.4210   -7.8940 C.3    36  GLU36       0.1163
     69  CD        30.0290  -11.3660   -8.4910 C.2    36  GLU36       0.3649
     70  OE1       29.6910  -11.4830   -9.6970 O.co2  36  GLU36      -0.2457
     71  OE2       29.6000  -10.4560   -7.7550 O.co2  36  GLU36      -0.2457
     72  N         34.1890  -13.5700   -5.8990 N.am   37  LEU37      -0.1977
     73  CA        35.3860  -14.1660   -6.4480 C.3    37  LEU37       0.1596
     74  C         35.4840  -15.6600   -6.1670 C.2    37  LEU37       0.2287
     75  O         35.8450  -16.4590   -7.0380 O.2    37  LEU37      -0.2864
     76  CB        36.5620  -13.4430   -5.8700 C.3    37  LEU37       0.0297
     77  CG        37.9190  -13.9540   -6.2460 C.3    37  LEU37       0.0022
     78  CD1       38.8460  -12.7000   -6.2090 C.3    37  LEU37       0.0001
     79  CD2       38.3690  -14.9780   -5.2770 C.3    37  LEU37       0.0001
     80  N         25.1360  -17.6540   -8.7740 N.3    92  PHE92      -0.1241
     81  CA        25.5910  -17.0900   -7.5000 C.3    92  PHE92       0.1605
     82  C         24.5150  -16.1140   -6.9760 C.2    92  PHE92       0.2264
     83  O         24.2940  -15.0540   -7.5900 O.2    92  PHE92      -0.2867
     84  CB        26.9030  -16.3450   -7.6870 C.3    92  PHE92       0.0534
     85  CG        27.3620  -15.5870   -6.4950 C.ar   92  PHE92      -0.0203
     86  CD1       27.4400  -16.1980   -5.2660 C.ar   92  PHE92      -0.0042
     87  CD2       27.7010  -14.2650   -6.5840 C.ar   92  PHE92      -0.0042
     88  CE1       27.8770  -15.4770   -4.1370 C.ar   92  PHE92      -0.0003
     89  CE2       28.0940  -13.5460   -5.4620 C.ar   92  PHE92      -0.0003
     90  CZ        28.1850  -14.1700   -4.2530 C.ar   92  PHE92      -0.0000
     91  N         23.8050  -13.6320   -4.1150 N.3    94  ASP94      -0.1239
     92  CA        24.3520  -12.8800   -3.0120 C.3    94  ASP94       0.1674
     93  C         23.2540  -12.2820   -2.1470 C.2    94  ASP94       0.2266
     94  O         22.1070  -12.1070   -2.5870 O.2    94  ASP94      -0.2867
     95  CB        25.2910  -11.8370   -3.5730 C.3    94  ASP94       0.1410
     96  CG        26.2200  -11.2440   -2.5360 C.2    94  ASP94       0.3668
     97  OD1       26.3460  -11.7370   -1.3970 O.co2  94  ASP94      -0.2456
     98  OD2       26.8810  -10.2160   -2.7970 O.co2  94  ASP94      -0.2456
     99  N         42.8950  -11.6390    8.9020 N.3   169  ARG169     -0.1245
    100  CA        43.7580  -12.3020    7.9130 C.3   169  ARG169      0.1563
    101  C         45.2530  -12.0070    8.1420 C.2   169  ARG169      0.2260
    102  O         46.0310  -11.8950    7.2040 O.2   169  ARG169     -0.2867
    103  CB        43.3490  -11.9510    6.4810 C.3   169  ARG169      0.0307
    104  CG        42.0340  -12.6160    6.0690 C.3   169  ARG169      0.0489
    105  CD        41.5350  -12.3180    4.6790 C.3   169  ARG169      0.2205
    106  NE        42.5870  -12.5700    3.7480 N.pl3 169  ARG169     -0.0865
    107  CZ        42.4370  -12.6390    2.4380 C.cat 169  ARG169      0.5346
    108  NH1       41.1930  -12.5430    1.8460 N.pl3 169  ARG169      0.1354
    109  NH2       43.5470  -12.8560    1.7360 N.pl3 169  ARG169      0.1354
    110  N         48.2820   -6.8350    0.5720 N.3   176  MET176     -0.1245
    111  CA        47.3430   -6.2980   -0.3480 C.3   176  MET176      0.1570
    112  C         47.5080   -4.7830   -0.4910 C.2   176  MET176      0.2261
    113  O         47.3820   -4.2490   -1.6040 O.2   176  MET176     -0.2867
    114  CB        45.9240   -6.6100    0.1590 C.3   176  MET176      0.0387
    115  CG        45.5910   -8.0960    0.0830 C.3   176  MET176      0.0595
    116  SD        43.8290   -8.2600    0.4420 S.3   176  MET176     -0.1393
    117  CE        43.5650   -9.8840    0.1240 C.3   176  MET176      0.0692
    118  N         48.1060   -2.9110   -4.0300 N.3   180  PHE180     -0.1241
    119  CA        47.2120   -1.8730   -4.5020 C.3   180  PHE180      0.1605
    120  C         47.9110   -0.5390   -4.7000 C.2   180  PHE180      0.2264
    121  O         47.6380    0.1710   -5.6810 O.2   180  PHE180     -0.2867
    122  CB        45.9900   -1.6780   -3.5790 C.3   180  PHE180      0.0534
    123  CG        45.0910   -2.8720   -3.5150 C.ar  180  PHE180     -0.0203
    124  CD1       44.5420   -3.2790   -2.3230 C.ar  180  PHE180     -0.0042
    125  CD2       44.7840   -3.5820   -4.6790 C.ar  180  PHE180     -0.0042
    126  CE1       43.7300   -4.3830   -2.2630 C.ar  180  PHE180     -0.0003
    127  CE2       43.9570   -4.6860   -4.6130 C.ar  180  PHE180     -0.0003
    128  CZ        43.4440   -5.0770   -3.3900 C.ar  180  PHE180     -0.0000
    129  N         38.2060   -5.7390    1.3990 N.3   213  ILE213     -0.1231
    130  CA        39.1800   -5.5650    0.3360 C.3   213  ILE213      0.1692
    131  C         38.7740   -4.5090   -0.6290 C.2   213  ILE213      0.2591
    132  O         39.6180   -3.7760   -1.1160 O.2   213  ILE213     -0.2718
    133  CB        39.4840   -6.9290   -0.3800 C.3   213  ILE213      0.0266
    134  CG1       39.9200   -7.9360    0.6670 C.3   213  ILE213      0.0019
    135  CG2       40.5320   -6.7190   -1.4690 C.3   213  ILE213      0.0020
    136  CD1       40.0030   -9.4050    0.1580 C.3   213  ILE213      0.0001
    137  N         37.4670   -4.3270   -0.8440 N.am  214  ARG214     -0.1980
    138  CA        36.9950   -3.2610   -1.6770 C.3   214  ARG214      0.1597
    139  C         37.3610   -1.8750   -1.0770 C.2   214  ARG214      0.2287
    140  O         37.8530   -0.9600   -1.7910 O.2   214  ARG214     -0.2864
    141  CB        35.4790   -3.4170   -1.8490 C.3   214  ARG214      0.0334
    142  CG        34.9260   -2.5650   -2.9090 C.3   214  ARG214      0.0492
    143  CD        33.4370   -2.7190   -3.0280 C.3   214  ARG214      0.2205
    144  NE        33.0530   -3.8150   -3.9070 N.pl3 214  ARG214     -0.0865
    145  CZ        32.5400   -4.9830   -3.5090 C.cat 214  ARG214      0.5346
    146  NH1       32.3710   -5.2440   -2.2400 N.pl3 214  ARG214      0.1354
    147  NH2       32.2160   -5.8880   -4.4130 N.pl3 214  ARG214      0.1354
    148  N         41.3500   -1.2690   -1.1300 N.3   217  LYS217     -0.1245
    149  CA        41.7990   -0.7830   -2.4340 C.3   217  LYS217      0.1561
    150  C         41.5550    0.7290   -2.6250 C.2   217  LYS217      0.2260
    151  O         42.4340    1.4610   -3.0750 O.2   217  LYS217     -0.2867
    152  CB        41.1520   -1.5700   -3.5840 C.3   217  LYS217      0.0271
    153  CG        41.7340   -1.1920   -4.9510 C.3   217  LYS217      0.0035
    154  CD        41.1850   -2.1510   -6.0260 C.3   217  LYS217      0.0206
    155  CE        41.7300   -1.8290   -7.3850 C.3   217  LYS217      0.1093
    156  NZ        40.8910   -0.7230   -8.0180 N.3   217  LYS217     -0.1314
@<TRIPOS>BOND
     1    70    69   ar
     2    80    81    1
     3    69    68    1
     4    69    71   ar
     5   156   155    1
     6    68    67    1
     7    84    81    1
     8    84    85    1
     9    83    82    2
    10    81    82    1
    11   155   154    1
    12    66    65    2
    13    75    74    2
    14     1     2    1
    15    87    85   ar
    16    87    89   ar
    17    85    86   ar
    18    73    74    1
    19    73    72    1
    20    73    76    1
    21    67    64    1
    22     8     6    1
    23    65    72   am
    24    65    64    1
    25    77    78    1
    26    77    76    1
    27    77    79    1
    28   154   153    1
    29     6     7    1
    30     6     5    1
    31    64    63    1
    32   121   120    2
    33     2     5    1
    34     2     3    1
    35    89    90   ar
    36    86    88   ar
    37   153   152    1
    38   120   119    1
    39   125   127   ar
    40   125   123   ar
    41   127   128   ar
    42     3     4    2
    43     3     9   am
    44    16    14    1
    45   119   118    1
    46   119   122    1
    47   147   145    1
    48    63    56   am
    49    90    88   ar
    50    91    92    1
    51    14    15    1
    52    14    13    1
    53   144   145    2
    54   144   143    1
    55    57    56    2
    56     9    10    1
    57   152   149    1
    58   122   123    1
    59    95    92    1
    60    95    96    1
    61   123   124   ar
    62   145   146    1
    63    56    55    1
    64   128   126   ar
    65   151   150    2
    66   143   142    1
    67    92    93    1
    68   142   141    1
    69    98    96   ar
    70    53    52    2
    71    10    13    1
    72    10    11    1
    73   150   149    1
    74    94    93    2
    75    96    97   ar
    76   149   148    1
    77   124   126   ar
    78    52    51    1
    79    52    54   am
    80    55    54    1
    81    55    58    1
    82    51    50    1
    83   141   138    1
    84   140   139    2
    85   138   139    1
    86   138   137    1
    87   113   112    2
    88   135   133    1
    89    11    12    2
    90    58    59    1
    91   132   131    2
    92    27    26   ar
    93    27    25   ar
    94   137   131   am
    95    50    45   am
    96    26    24   ar
    97   131   130    1
    98   112   111    1
    99   133   130    1
   100   133   134    1
   101   111   114    1
   102   111   110    1
   103    25    23   ar
   104   115   114    1
   105   115   116    1
   106    40    41    1
   107    40    39    1
   108   117   116    1
   109    59    60    1
   110   136   134    1
   111    61    62    1
   112    61    60    1
   113    45    46    2
   114    45    44    1
   115   130   129    1
   116    42    41    2
   117    41    43   am
   118    39    30   am
   119    24    22   ar
   120    43    44    1
   121    23    22   ar
   122    44    47    1
   123    22    21    1
   124   109   107    1
   125    30    29    1
   126    30    31    2
   127   108   107    1
   128    20    19    2
   129    32    29    1
   130    32    33    1
   131    29    28    1
   132    48    47    1
   133   107   106    2
   134    47    49    1
   135    19    18    1
   136    34    33    1
   137    34    35    1
   138    21    18    1
   139    35    36    2
   140    18    17    1
   141   106   105    1
   142    36    38    1
   143    36    37    1
   144   105   104    1
   145   104   103    1
   146   103   100    1
   147   102   101    2
   148   100   101    1
   149   100    99    1
