@<TRIPOS>MOLECULE
tmp/2c99A00.pdb
 162 154 0 0 0
SMALL
GASTEIGER

@<TRIPOS>ATOM
      1  N         44.3960  -14.3310   -7.3030 N.3     1  LEU1       -0.1231
      2  CA        43.8810  -14.0010   -5.9460 C.3     1  LEU1        0.1693
      3  C         45.0450  -13.7820   -5.0040 C.2     1  LEU1        0.2591
      4  O         45.9170  -14.6530   -4.9080 O.2     1  LEU1       -0.2718
      5  CB        43.0190  -15.1570   -5.4100 C.3     1  LEU1        0.0284
      6  CG        41.6330  -15.3550   -6.0280 C.3     1  LEU1        0.0019
      7  CD1       40.7890  -16.4120   -5.3190 C.3     1  LEU1        0.0001
      8  CD2       40.8980  -14.0440   -6.0270 C.3     1  LEU1        0.0001
      9  N         45.0520  -12.6370   -4.3070 N.am    2  LEU2       -0.1980
     10  CA        46.0680  -12.3000   -3.3020 C.3     2  LEU2        0.1596
     11  C         45.7080  -12.9070   -1.9530 C.2     2  LEU2        0.2287
     12  O         44.5270  -12.9690   -1.5950 O.2     2  LEU2       -0.2864
     13  CB        46.1720  -10.7760   -3.1310 C.3     2  LEU2        0.0297
     14  CG        46.4090   -9.9170   -4.3890 C.3     2  LEU2        0.0022
     15  CD1       46.2210   -8.4540   -4.0990 C.3     2  LEU2        0.0001
     16  CD2       47.8150  -10.1650   -4.9010 C.3     2  LEU2        0.0001
     17  N         42.7310  -17.9670    4.6570 N.3     8  PHE8       -0.1241
     18  CA        42.4520  -17.8630    3.2150 C.3     8  PHE8        0.1605
     19  C         42.9010  -19.0310    2.3770 C.2     8  PHE8        0.2264
     20  O         42.1670  -19.4960    1.5450 O.2     8  PHE8       -0.2867
     21  CB        43.0230  -16.5980    2.6680 C.3     8  PHE8        0.0534
     22  CG        42.6710  -16.3540    1.2420 C.ar    8  PHE8       -0.0203
     23  CD1       41.3710  -15.9800    0.8990 C.ar    8  PHE8       -0.0042
     24  CD2       43.6410  -16.4370    0.2400 C.ar    8  PHE8       -0.0042
     25  CE1       41.0420  -15.7170   -0.4160 C.ar    8  PHE8       -0.0003
     26  CE2       43.3230  -16.1640   -1.0580 C.ar    8  PHE8       -0.0003
     27  CZ        41.9990  -15.7920   -1.3940 C.ar    8  PHE8       -0.0000
     28  N         30.8260   -7.9320    3.1960 N.3    31  ARG31      -0.1231
     29  CA        31.0120   -7.2840    1.8970 C.3    31  ARG31       0.1694
     30  C         32.4920   -7.0940    1.5980 C.2    31  ARG31       0.2593
     31  O         33.3060   -6.8660    2.5010 O.2    31  ARG31      -0.2718
     32  CB        30.3060   -5.9300    1.8260 C.3    31  ARG31       0.0321
     33  CG        30.9140   -4.8310    2.5780 C.3    31  ARG31       0.0489
     34  CD        30.2180   -3.4650    2.3110 C.3    31  ARG31       0.2205
     35  NE        30.8930   -2.3330    2.9990 N.pl3  31  ARG31      -0.0865
     36  CZ        30.6000   -1.9220    4.2450 C.cat  31  ARG31       0.5346
     37  NH1       29.6620   -2.4840    4.9800 N.pl3  31  ARG31       0.1354
     38  NH2       31.2820   -0.9300    4.7790 N.pl3  31  ARG31       0.1354
     39  N         32.8600   -7.2020    0.3160 N.am   32  GLY32      -0.1942
     40  CA        34.2180   -6.9810   -0.0890 C.3    32  GLY32       0.2014
     41  C         35.2400   -8.0430    0.2320 C.2    32  GLY32       0.2640
     42  O         36.4260   -7.7750    0.0930 O.2    32  GLY32      -0.2714
     43  N         34.7960   -9.2250    0.6310 N.am   33  THR33      -0.1936
     44  CA        35.6770  -10.2920    1.0050 C.3    33  THR33       0.2028
     45  C         36.0090  -11.2280   -0.0930 C.2    33  THR33       0.2643
     46  O         36.8870  -12.0450    0.0770 O.2    33  THR33      -0.2714
     47  CB        35.1740  -11.1140    2.1850 C.3    33  THR33       0.1808
     48  OG1       33.8310  -11.5840    1.9390 O.3    33  THR33      -0.2208
     49  CG2       35.1340  -10.2910    3.4220 C.3    33  THR33       0.0379
     50  N         35.3660  -11.0750   -1.2310 N.am   34  GLY34      -0.1939
     51  CA        35.6420  -11.8860   -2.3980 C.3    34  GLY34       0.2014
     52  C         34.6660  -13.0280   -2.6340 C.2    34  GLY34       0.2639
     53  O         35.0610  -14.0280   -3.2200 O.2    34  GLY34      -0.2714
     54  N         33.4040  -12.8730   -2.2110 N.am   35  LYS35      -0.1963
     55  CA        32.4160  -13.9440   -2.3410 C.3    35  LYS35       0.1728
     56  C         32.1140  -14.2480   -3.7860 C.2    35  LYS35       0.2616
     57  O         32.1260  -15.3960   -4.1690 O.2    35  LYS35      -0.2715
     58  CB        31.1400  -13.5950   -1.5600 C.3    35  LYS35       0.0311
     59  CG        31.3440  -13.5910   -0.0860 C.3    35  LYS35       0.0038
     60  CD        30.1440  -13.2620    0.7170 C.3    35  LYS35       0.0206
     61  CE        29.4010  -12.0910    0.3170 C.3    35  LYS35       0.1093
     62  NZ        30.1140  -10.8180    0.5880 N.3    35  LYS35      -0.1314
     63  N         31.9120  -13.2270   -4.5970 N.am   36  GLU36      -0.1963
     64  CA        31.6860  -13.4560   -6.0190 C.3    36  GLU36       0.1733
     65  C         32.8810  -14.0970   -6.7220 C.2    36  GLU36       0.2616
     66  O         32.7000  -14.9500   -7.5920 O.2    36  GLU36      -0.2715
     67  CB        31.2410  -12.1860   -6.7550 C.3    36  GLU36       0.0429
     68  CG        30.6910  -12.5250   -8.1220 C.3    36  GLU36       0.1163
     69  CD        29.8800  -11.4370   -8.7790 C.2    36  GLU36       0.3649
     70  OE1       29.2910  -10.6470   -8.0640 O.co2  36  GLU36      -0.2457
     71  OE2       29.7980  -11.4550  -10.0320 O.co2  36  GLU36      -0.2457
     72  N         34.0910  -13.6800   -6.3540 N.am   37  LEU37      -0.1977
     73  CA        35.3120  -14.2460   -6.8970 C.3    37  LEU37       0.1596
     74  C         35.4080  -15.7220   -6.5570 C.2    37  LEU37       0.2287
     75  O         35.7770  -16.5430   -7.4070 O.2    37  LEU37      -0.2864
     76  CB        36.5310  -13.4980   -6.3910 C.3    37  LEU37       0.0297
     77  CG        36.8190  -12.1650   -7.0780 C.3    37  LEU37       0.0022
     78  CD1       38.0830  -11.6140   -6.5640 C.3    37  LEU37       0.0001
     79  CD2       36.8760  -12.2820   -8.6700 C.3    37  LEU37       0.0001
     80  N         21.8720  -10.3260   -7.4280 N.3    57  ASN57      -0.1240
     81  CA        21.8480   -9.7810   -6.0900 C.3    57  ASN57       0.1653
     82  C         20.3800   -9.7010   -5.6820 C.2    57  ASN57       0.2266
     83  O         19.6160   -8.9230   -6.2370 O.2    57  ASN57      -0.2867
     84  CB        22.5590   -8.4310   -6.0190 C.3    57  ASN57       0.1155
     85  CG        22.8570   -8.0030   -4.6030 C.2    57  ASN57       0.2627
     86  OD1       21.9700   -7.9230   -3.7700 O.2    57  ASN57      -0.2716
     87  ND2       24.1160   -7.6930   -4.3260 N.am   57  ASN57      -0.0877
     88  N         23.5820  -13.6840   -4.6190 N.3    93  ASP93      -0.1225
     89  CA        24.1890  -12.9060   -3.5510 C.3    93  ASP93       0.1805
     90  C         23.1370  -12.2720   -2.6510 C.2    93  ASP93       0.2597
     91  O         21.9930  -12.0790   -3.0500 O.2    93  ASP93      -0.2718
     92  CB        25.1310  -11.8430   -4.1630 C.3    93  ASP93       0.1424
     93  CG        26.1660  -11.3520   -3.2050 C.2    93  ASP93       0.3668
     94  OD1       26.2760  -11.8210   -2.0220 O.co2  93  ASP93      -0.2456
     95  OD2       26.9240  -10.3990   -3.5660 O.co2  93  ASP93      -0.2456
     96  N         23.5200  -11.9480   -1.4520 N.am   94  GLU94      -0.1979
     97  CA        22.6130  -11.4140   -0.4040 C.3    94  GLU94       0.1602
     98  C         21.3220  -12.2720   -0.2050 C.2    94  GLU94       0.2287
     99  O         20.2100  -11.7560   -0.1760 O.2    94  GLU94      -0.2864
    100  CB        22.3140   -9.9550   -0.6800 C.3    94  GLU94       0.0415
    101  CG        23.5990   -9.1600   -0.8540 C.3    94  GLU94       0.1163
    102  CD        23.4130   -7.6680   -0.7420 C.2    94  GLU94       0.3649
    103  OE1       22.9310   -7.1980    0.3200 O.co2  94  GLU94      -0.2457
    104  OE2       23.7760   -6.9640   -1.7210 O.co2  94  GLU94      -0.2457
    105  N         42.7790  -11.6150    8.6730 N.3   168  ARG168     -0.1197
    106  CA        43.8520  -12.0340    7.7580 C.3   168  ARG168      0.1779
    107  C         44.9130  -10.9160    7.9160 C.2   168  ARG168      0.2305
    108  O         45.3220  -10.2920    6.9270 O.2   168  ARG168     -0.2863
    109  CB        43.3840  -12.0190    6.2520 C.2   168  ARG168     -0.0007
    110  CG        42.0540  -12.6960    5.8610 C.2   168  ARG168      0.0176
    111  CD        41.4860  -12.4310    4.4610 C.3   168  ARG168      0.2464
    112  NE        42.4710  -12.6990    3.4790 N.pl3 168  ARG168     -0.0815
    113  CZ        42.2670  -12.7640    2.1830 C.cat 168  ARG168      0.5349
    114  NH1       41.0370  -12.6560    1.6470 N.pl3 168  ARG168      0.1354
    115  NH2       43.3220  -12.9710    1.4030 N.pl3 168  ARG168      0.1354
    116  N         48.3760   -6.9270    0.3790 N.3   175  MET175     -0.1245
    117  CA        47.4590   -6.4080   -0.5610 C.3   175  MET175      0.1570
    118  C         47.6100   -4.8950   -0.7210 C.2   175  MET175      0.2261
    119  O         47.4930   -4.3810   -1.8290 O.2   175  MET175     -0.2867
    120  CB        46.0200   -6.7370   -0.1310 C.3   175  MET175      0.0387
    121  CG        45.6650   -8.2220   -0.2150 C.3   175  MET175      0.0595
    122  SD        43.8450   -8.4390    0.1060 S.3   175  MET175     -0.1393
    123  CE        43.9070   -9.7530    1.0980 C.3   175  MET175      0.0692
    124  N         48.1560   -3.0740   -4.3430 N.3   179  PHE179     -0.1241
    125  CA        47.2780   -2.0170   -4.8170 C.3   179  PHE179      0.1605
    126  C         47.9490   -0.6880   -4.9630 C.2   179  PHE179      0.2264
    127  O         47.6710    0.0370   -5.9250 O.2   179  PHE179     -0.2867
    128  CB        46.0680   -1.8060   -3.9210 C.3   179  PHE179      0.0534
    129  CG        45.1540   -3.0270   -3.7990 C.ar  179  PHE179     -0.0203
    130  CD1       44.5810   -3.3530   -2.5850 C.ar  179  PHE179     -0.0042
    131  CD2       44.8370   -3.7780   -4.8780 C.ar  179  PHE179     -0.0042
    132  CE1       43.7250   -4.4060   -2.4570 C.ar  179  PHE179     -0.0003
    133  CE2       43.9780   -4.8840   -4.7390 C.ar  179  PHE179     -0.0003
    134  CZ        43.4530   -5.1920   -3.5350 C.ar  179  PHE179     -0.0000
    135  N         38.2470   -5.9100    1.2260 N.3   212  ILE212     -0.1231
    136  CA        39.2070   -5.7220    0.1570 C.3   212  ILE212      0.1692
    137  C         38.8010   -4.6390   -0.8150 C.2   212  ILE212      0.2591
    138  O         39.6590   -3.9080   -1.2690 O.2   212  ILE212     -0.2718
    139  CB        39.4940   -7.0560   -0.5710 C.3   212  ILE212      0.0266
    140  CG1       40.0470   -8.0760    0.4150 C.3   212  ILE212      0.0019
    141  CG2       40.4140   -6.8590   -1.7290 C.3   212  ILE212      0.0020
    142  CD1       39.8350   -9.4910   -0.0740 C.3   212  ILE212      0.0001
    143  N         37.5070   -4.4630   -1.0730 N.am  213  ARG213     -0.1980
    144  CA        37.0720   -3.3720   -1.9310 C.3   213  ARG213      0.1597
    145  C         37.4620   -2.0090   -1.3470 C.2   213  ARG213      0.2287
    146  O         38.0050   -1.1020   -2.0200 O.2   213  ARG213     -0.2864
    147  CB        35.5690   -3.5010   -2.1580 C.3   213  ARG213      0.0334
    148  CG        34.9730   -2.3550   -2.9870 C.3   213  ARG213      0.0492
    149  CD        33.4640   -2.3850   -3.1390 C.3   213  ARG213      0.2205
    150  NE        33.0070   -3.4490   -4.0070 N.pl3 213  ARG213     -0.0865
    151  CZ        32.4590   -4.5800   -3.6020 C.cat 213  ARG213      0.5346
    152  NH1       32.2810   -4.8260   -2.3120 N.pl3 213  ARG213      0.1354
    153  NH2       32.0840   -5.4750   -4.4950 N.pl3 213  ARG213      0.1354
    154  N         41.4170   -1.4080   -1.3290 N.3   216  LYS216     -0.1245
    155  CA        41.9260   -0.9820   -2.6340 C.3   216  LYS216      0.1561
    156  C         41.6210    0.5250   -2.8640 C.2   216  LYS216      0.2260
    157  O         42.4660    1.3040   -3.3650 O.2   216  LYS216     -0.2867
    158  CB        41.2730   -1.7990   -3.7450 C.3   216  LYS216      0.0271
    159  CG        41.7510   -1.3950   -5.1520 C.3   216  LYS216      0.0035
    160  CD        41.1960   -2.3560   -6.1760 C.3   216  LYS216      0.0206
    161  CE        41.6490   -1.9110   -7.5600 C.3   216  LYS216      0.1093
    162  NZ        41.1260   -2.8600   -8.5950 N.3   216  LYS216     -0.1314
@<TRIPOS>BOND
     1    71    69   ar
     2    69    68    1
     3    69    70   ar
     4    79    77    1
     5   162   161    1
     6    68    67    1
     7    66    65    2
     8   161   160    1
     9    80    81    1
    10    75    74    2
    11     1     2    1
    12    77    78    1
    13    77    76    1
    14    73    74    1
    15    73    76    1
    16    73    72    1
    17    67    64    1
    18    65    72   am
    19    65    64    1
    20    83    82    2
    21   160   159    1
    22    81    84    1
    23    81    82    1
    24     6     8    1
    25     6     5    1
    26     6     7    1
    27    64    63    1
    28    84    85    1
    29     2     5    1
    30     2     3    1
    31   127   126    2
    32   159   158    1
    33     3     4    2
    34     3     9   am
    35   126   125    1
    36    16    14    1
    37   131   133   ar
    38   131   129   ar
    39   125   124    1
    40   125   128    1
    41   133   134   ar
    42    88    89    1
    43    85    87   am
    44    85    86    2
    45    63    56   am
    46   153   151    1
    47    14    15    1
    48    14    13    1
    49     9    10    1
    50    57    56    2
    51    92    89    1
    52    92    93    1
    53   150   151    2
    54   150   149    1
    55   128   129    1
    56   129   130   ar
    57    56    55    1
    58   158   155    1
    59   151   152    1
    60    95    93   ar
    61    89    90    1
    62   134   132   ar
    63   157   156    2
    64    10    13    1
    65    10    11    1
    66    53    52    2
    67    93    94   ar
    68   149   148    1
    69    91    90    2
    70   148   147    1
    71   156   155    1
    72    90    96   am
    73    52    51    1
    74    52    54   am
    75   155   154    1
    76   130   132   ar
    77    51    50    1
    78    55    54    1
    79    55    58    1
    80   147   144    1
    81   146   145    2
    82    11    12    2
    83   144   145    1
    84   144   143    1
    85   119   118    2
    86   141   139    1
    87   104   102   ar
    88    58    59    1
    89    96    97    1
    90    27    26   ar
    91    27    25   ar
    92   138   137    2
    93    50    45   am
    94   143   137   am
    95    26    24   ar
    96   101   102    1
    97   101   100    1
    98   137   136    1
    99   102   103   ar
   100   118   117    1
   101   100    97    1
   102   139   136    1
   103   139   140    1
   104   117   120    1
   105   117   116    1
   106    25    23   ar
   107    97    98    1
   108   121   120    1
   109   121   122    1
   110    98    99    2
   111    45    46    2
   112    45    44    1
   113    40    41    1
   114    40    39    1
   115    59    60    1
   116   142   140    1
   117    42    41    2
   118   122   123    1
   119   136   135    1
   120    41    43   am
   121    24    22   ar
   122    39    30   am
   123    61    62    1
   124    61    60    1
   125    43    44    1
   126    23    22   ar
   127    44    47    1
   128    22    21    1
   129   115   113    1
   130    20    19    2
   131    30    29    1
   132    30    31    2
   133   114   113    1
   134    32    29    1
   135    32    33    1
   136    29    28    1
   137    48    47    1
   138   113   112    2
   139    47    49    1
   140    34    33    1
   141    34    35    1
   142    19    18    1
   143    21    18    1
   144    35    36    2
   145    18    17    1
   146   112   111    1
   147    36    38    1
   148    36    37    1
   149   111   110    1
   150   110   109    2
   151   109   106    1
   152   108   107    2
   153   106   107    1
   154   106   105    1
