@<TRIPOS>MOLECULE
tmp/2c9bF00.pdb
 103 101 0 0 0
SMALL
GASTEIGER

@<TRIPOS>ATOM
      1  N         -1.9760    8.8200   44.0630 N.3    12  SER12      -0.1217
      2  CA        -1.4390    7.6380   44.7490 C.3    12  SER12       0.1889
      3  C         -1.8770    7.5760   46.2150 C.2    12  SER12       0.2288
      4  O         -2.4530    8.5330   46.7330 O.2    12  SER12      -0.2866
      5  CB         0.0850    7.5390   44.6050 C.3    12  SER12       0.2089
      6  OG         0.7390    8.6510   45.1870 O.3    12  SER12      -0.2183
      7  N          0.1410    5.9000   49.0130 N.3    14  TRP14      -0.1227
      8  CA         1.2540    5.9670   49.9650 C.3    14  TRP14       0.1737
      9  C          1.1940    7.2860   50.7410 C.2    14  TRP14       0.2595
     10  O          1.1640    8.3470   50.1380 O.2    14  TRP14      -0.2718
     11  CB         2.5690    5.8750   49.1920 C.3    14  TRP14       0.0564
     12  CG         3.7330    5.3040   49.9500 C.ar   14  TRP14       0.0003
     13  CD1        4.5020    5.9440   50.8760 C.ar   14  TRP14       0.0946
     14  CD2        4.2840    3.9850   49.8110 C.ar   14  TRP14       0.0152
     15  NE1        5.4890    5.1050   51.3370 N.ar   14  TRP14      -0.2442
     16  CE2        5.3790    3.8960   50.7010 C.ar   14  TRP14       0.0810
     17  CE3        3.9560    2.8690   49.0290 C.ar   14  TRP14       0.0012
     18  CZ2        6.1480    2.7320   50.8330 C.ar   14  TRP14       0.0191
     19  CZ3        4.7200    1.7140   49.1610 C.ar   14  TRP14       0.0001
     20  CH2        5.8040    1.6560   50.0550 C.ar   14  TRP14       0.0015
     21  N          1.1700    7.2190   52.0690 N.am   15  HIS15      -0.1975
     22  CA         0.8940    8.3860   52.9280 C.3    15  HIS15       0.1656
     23  C         -0.5460    8.8800   52.7300 C.2    15  HIS15       0.2291
     24  O         -0.7790   10.0410   52.3810 O.2    15  HIS15      -0.2864
     25  CB         1.8980    9.5280   52.7010 C.3    15  HIS15       0.0771
     26  CG         3.3340    9.1270   52.8620 C.ar   15  HIS15       0.0820
     27  ND1        3.8990    8.8480   54.0880 N.ar   15  HIS15      -0.2267
     28  CD2        4.3260    8.9900   51.9510 C.ar   15  HIS15       0.1154
     29  CE1        5.1720    8.5370   53.9240 C.ar   15  HIS15       0.1986
     30  NE2        5.4580    8.6170   52.6370 N.ar   15  HIS15      -0.2212
     31  N         -1.3580    2.9190   44.0280 N.3    44  LEU44      -0.1231
     32  CA        -0.6790    2.6780   45.2990 C.3    44  LEU44       0.1693
     33  C          0.5350    3.5890   45.4740 C.2    44  LEU44       0.2593
     34  O          0.6680    4.2660   46.4970 O.2    44  LEU44      -0.2718
     35  CB        -0.2670    1.2050   45.4280 C.3    44  LEU44       0.0284
     36  CG         0.4070    0.7540   46.7320 C.3    44  LEU44       0.0019
     37  CD1       -0.6020    0.5700   47.8700 C.3    44  LEU44       0.0001
     38  CD2        1.1850   -0.5270   46.4980 C.3    44  LEU44       0.0001
     39  N          1.4140    3.5990   44.4730 N.am   45  GLY45      -0.1942
     40  CA         2.6470    4.3770   44.5390 C.3    45  GLY45       0.2014
     41  C          2.8030    5.3630   43.3990 C.2    45  GLY45       0.2639
     42  O          2.0990    5.2820   42.3910 O.2    45  GLY45      -0.2714
     43  N          3.7450    6.2890   43.5630 N.am   46  ALA46      -0.1963
     44  CA         4.0140    7.3270   42.5650 C.3    46  ALA46       0.1728
     45  C          4.7010    6.8010   41.2950 C.2    46  ALA46       0.2616
     46  O          4.6410    7.4520   40.2490 O.2    46  ALA46      -0.2715
     47  CB         4.8190    8.4700   43.1840 C.3    46  ALA46       0.0334
     48  N          5.3430    5.6330   41.3870 N.am   47  ILE47      -0.1963
     49  CA         5.9510    4.9790   40.2190 C.3    47  ILE47       0.1727
     50  C          4.8800    4.4630   39.2600 C.2    47  ILE47       0.2616
     51  O          5.1220    4.3450   38.0570 O.2    47  ILE47      -0.2715
     52  CB         6.8940    3.7980   40.6060 C.3    47  ILE47       0.0290
     53  CG1        7.9390    4.2150   41.6550 C.3    47  ILE47       0.0022
     54  CG2        7.5620    3.1900   39.3630 C.3    47  ILE47       0.0023
     55  CD1        8.9270    5.2870   41.2240 C.3    47  ILE47       0.0001
     56  N          3.6970    4.1740   39.7960 N.am   48  GLU48      -0.1977
     57  CA         2.5870    3.6480   39.0000 C.3    48  GLU48       0.1602
     58  C          1.7300    4.7280   38.3190 C.2    48  GLU48       0.2287
     59  O          0.8230    4.3980   37.5440 O.2    48  GLU48      -0.2864
     60  CB         1.7060    2.7210   39.8500 C.3    48  GLU48       0.0415
     61  CG         2.3160    1.3510   40.1280 C.3    48  GLU48       0.1163
     62  CD         3.2920    1.3600   41.2910 C.2    48  GLU48       0.3649
     63  OE1        2.8750    1.6960   42.4170 O.co2  48  GLU48      -0.2457
     64  OE2        4.4750    1.0190   41.0840 O.co2  48  GLU48      -0.2457
     65  N          2.5490   12.0000   47.3890 N.3    68  VAL68      -0.1231
     66  CA         3.4570   12.4360   48.4490 C.3    68  VAL68       0.1692
     67  C          4.6730   11.5150   48.5010 C.2    68  VAL68       0.2592
     68  O          4.5340   10.2990   48.6530 O.2    68  VAL68      -0.2718
     69  CB         2.7680   12.4190   49.8480 C.3    68  VAL68       0.0266
     70  CG1        3.6690   13.0420   50.9130 C.3    68  VAL68       0.0020
     71  CG2        1.4240   13.1250   49.8070 C.3    68  VAL68       0.0020
     72  N          5.8620   12.0990   48.3710 N.am   69  VAL69      -0.1966
     73  CA         7.1120   11.3560   48.5380 C.3    69  VAL69       0.1727
     74  C          7.9550   12.0060   49.6500 C.2    69  VAL69       0.2616
     75  O          8.3150   13.1860   49.5580 O.2    69  VAL69      -0.2715
     76  CB         7.9070   11.2290   47.2000 C.3    69  VAL69       0.0290
     77  CG1        9.2050   10.4670   47.4070 C.3    69  VAL69       0.0023
     78  CG2        7.0730   10.5250   46.1390 C.3    69  VAL69       0.0023
     79  N          8.2410   11.2380   50.7030 N.am   70  ILE70      -0.1977
     80  CA         8.9980   11.7350   51.8580 C.3    70  ILE70       0.1596
     81  C         10.3580   11.0360   51.9720 C.2    70  ILE70       0.2287
     82  O         10.4680    9.8340   51.7210 O.2    70  ILE70      -0.2864
     83  CB         8.1940   11.5810   53.1800 C.3    70  ILE70       0.0276
     84  CG1        6.8060   12.2240   53.0400 C.3    70  ILE70       0.0022
     85  CG2        8.9600   12.1930   54.3590 C.3    70  ILE70       0.0022
     86  CD1        5.8650   11.9910   54.2150 C.3    70  ILE70       0.0001
     87  N         16.8090    5.9160   48.3150 N.3    76  HIS76      -0.1241
     88  CA        15.5530    5.5050   47.6760 C.3    76  HIS76       0.1621
     89  C         14.6590    6.6810   47.2560 C.2    76  HIS76       0.2264
     90  O         13.9490    6.6040   46.2470 O.2    76  HIS76      -0.2867
     91  CB        14.7870    4.5480   48.6000 C.3    76  HIS76       0.0745
     92  CG        13.5160    4.0230   48.0100 C.ar   76  HIS76       0.0817
     93  ND1       13.4960    3.1430   46.9490 N.ar   76  HIS76      -0.2268
     94  CD2       12.2210    4.2580   48.3300 C.ar   76  HIS76       0.1154
     95  CE1       12.2430    2.8600   46.6380 C.ar   76  HIS76       0.1986
     96  NE2       11.4500    3.5220   47.4630 N.ar   76  HIS76      -0.2212
     97  N         12.7720    7.3740   43.2830 N.3    80  VAL80      -0.1245
     98  CA        11.3140    7.4100   43.2160 C.3    80  VAL80       0.1561
     99  C         10.8610    8.6830   42.4980 C.2    80  VAL80       0.2260
    100  O          9.9830    8.6330   41.6340 O.2    80  VAL80      -0.2867
    101  CB        10.6800    7.2940   44.6330 C.3    80  VAL80       0.0252
    102  CG1        9.2190    7.7050   44.6300 C.3    80  VAL80       0.0019
    103  CG2       10.8150    5.8830   45.1570 C.3    80  VAL80       0.0019
@<TRIPOS>BOND
     1    59    58    2
     2    51    50    2
     3    58    57    1
     4    57    56    1
     5    57    60    1
     6    50    56   am
     7    50    49    1
     8    54    52    1
     9    60    61    1
    10    61    62    1
    11    49    52    1
    12    49    48    1
    13    46    45    2
    14    52    53    1
    15    64    62   ar
    16    55    53    1
    17    62    63   ar
    18    45    48   am
    19    45    44    1
    20   100    99    2
    21    42    41    2
    22    99    98    1
    23    44    47    1
    24    44    43    1
    25    98    97    1
    26    98   101    1
    27    41    43   am
    28    41    40    1
    29    31    32    1
    30     1     2    1
    31    39    40    1
    32    39    33   am
    33     5     2    1
    34     5     6    1
    35   102   101    1
    36   101   103    1
    37     2     3    1
    38    32    35    1
    39    32    33    1
    40    35    36    1
    41    33    34    2
    42    78    76    1
    43     3     4    2
    44    90    89    2
    45    38    36    1
    46    95    93   ar
    47    95    96   ar
    48    36    37    1
    49    93    92   ar
    50    76    77    1
    51    76    73    1
    52    89    88    1
    53    65    66    1
    54    96    94   ar
    55    88    87    1
    56    88    91    1
    57    92    94   ar
    58    92    91    1
    59    72    67   am
    60    72    73    1
    61    66    67    1
    62    66    69    1
    63    67    68    2
    64    73    74    1
    65     7     8    1
    66    17    19   ar
    67    17    14   ar
    68    19    20   ar
    69    11    12    1
    70    11     8    1
    71    75    74    2
    72    74    79   am
    73    71    69    1
    74    14    12   ar
    75    14    16   ar
    76    69    70    1
    77    12    13   ar
    78     8     9    1
    79    20    18   ar
    80    10     9    2
    81    16    18   ar
    82    16    15   ar
    83    79    80    1
    84     9    21   am
    85    13    15   ar
    86    82    81    2
    87    80    81    1
    88    80    83    1
    89    28    30   ar
    90    28    26   ar
    91    21    22    1
    92    24    23    2
    93    30    29   ar
    94    25    26    1
    95    25    22    1
    96    23    22    1
    97    26    27   ar
    98    84    83    1
    99    84    86    1
   100    83    85    1
   101    29    27   ar
