@<TRIPOS>MOLECULE
tmp/2c9cA00.pdb
 179 173 0 0 0
SMALL
GASTEIGER

@<TRIPOS>ATOM
      1  N         34.6000   31.1400   -1.1140 N.3     1  LEU1       -0.1231
      2  CA        33.8570   30.8730    0.1510 C.3     1  LEU1        0.1693
      3  C         34.2450   31.9090    1.1730 C.2     1  LEU1        0.2591
      4  O         35.4620   32.1510    1.3700 O.2     1  LEU1       -0.2718
      5  CB        34.2750   29.5360    0.7320 C.3     1  LEU1        0.0284
      6  CG        33.9640   28.2670   -0.0320 C.3     1  LEU1        0.0019
      7  CD1       34.3110   27.0640    0.7880 C.3     1  LEU1        0.0001
      8  CD2       32.5010   28.2610   -0.4460 C.3     1  LEU1        0.0001
      9  N         33.2640   32.4630    1.9000 N.am    2  LEU2       -0.1980
     10  CA        33.5490   33.5030    2.9150 C.3     2  LEU2        0.1596
     11  C         33.8530   32.9180    4.2770 C.2     2  LEU2        0.2287
     12  O         33.3090   31.8770    4.6700 O.2     2  LEU2       -0.2864
     13  CB        32.4020   34.5270    3.0530 C.3     2  LEU2        0.0297
     14  CG        31.7530   35.0910    1.7650 C.3     2  LEU2        0.0022
     15  CD1       30.4070   35.7100    2.0690 C.3     2  LEU2        0.0001
     16  CD2       32.6680   36.1130    1.0660 C.3     2  LEU2        0.0001
     17  N         36.7500   27.5390   10.7610 N.3     8  PHE8       -0.1241
     18  CA        36.4620   27.4180    9.3100 C.3     8  PHE8        0.1605
     19  C         37.7260   27.2520    8.4440 C.2     8  PHE8        0.2264
     20  O         37.7870   26.3940    7.5500 O.2     8  PHE8       -0.2867
     21  CB        35.7070   28.6460    8.8390 C.3     8  PHE8        0.0534
     22  CG        35.2870   28.5760    7.3860 C.ar    8  PHE8       -0.0203
     23  CD1       34.3530   27.6390    6.9880 C.ar    8  PHE8       -0.0042
     24  CD2       35.8240   29.4650    6.4390 C.ar    8  PHE8       -0.0042
     25  CE1       33.9470   27.5390    5.6760 C.ar    8  PHE8       -0.0003
     26  CE2       35.4650   29.3630    5.1010 C.ar    8  PHE8       -0.0003
     27  CZ        34.5500   28.4070    4.7060 C.ar    8  PHE8       -0.0000
     28  N         21.9930   22.5330    9.0680 N.3    31  ARG31      -0.1231
     29  CA        21.5320   22.9780    7.7800 C.3    31  ARG31       0.1694
     30  C         22.1370   24.3510    7.4920 C.2    31  ARG31       0.2593
     31  O         22.3580   25.1910    8.3960 O.2    31  ARG31      -0.2718
     32  CB        19.9880   23.0370    7.7560 C.3    31  ARG31       0.0321
     33  CG        19.3480   23.8600    8.8040 C.3    31  ARG31       0.0489
     34  CD        17.8950   24.1890    8.4110 C.3    31  ARG31       0.2205
     35  NE        17.1390   24.9830    9.3630 N.pl3  31  ARG31      -0.0865
     36  CZ        16.6540   24.4870   10.5220 C.cat  31  ARG31       0.5346
     37  NH1       16.8750   23.2690   10.8290 N.pl3  31  ARG31       0.1354
     38  NH2       16.0000   25.2440   11.4080 N.pl3  31  ARG31       0.1354
     39  N         22.3790   24.5990    6.2340 N.am   32  GLY32      -0.1942
     40  CA        22.7560   25.9080    5.7910 C.3    32  GLY32       0.2014
     41  C         24.1940   26.2600    6.1050 C.2    32  GLY32       0.2640
     42  O         24.5240   27.4330    6.0510 O.2    32  GLY32      -0.2714
     43  N         25.0280   25.2680    6.4320 N.am   33  THR33      -0.1936
     44  CA        26.3710   25.5400    6.9270 C.3    33  THR33       0.2028
     45  C         27.4050   25.4760    5.8830 C.2    33  THR33       0.2643
     46  O         28.5360   25.7830    6.1870 O.2    33  THR33      -0.2714
     47  CB        26.8400   24.6510    8.0960 C.3    33  THR33       0.1808
     48  OG1       26.5800   23.2840    7.7960 O.3    33  THR33      -0.2208
     49  CG2       26.1130   24.9450    9.3270 C.3    33  THR33       0.0379
     50  N         27.0540   25.1170    4.6620 N.am   34  GLY34      -0.1939
     51  CA        28.0630   24.9870    3.6440 C.3    34  GLY34       0.2014
     52  C         28.5040   23.5960    3.2410 C.2    34  GLY34       0.2639
     53  O         29.4590   23.4760    2.5260 O.2    34  GLY34      -0.2714
     54  N         27.8010   22.5610    3.6780 N.am   35  LYS35      -0.1963
     55  CA        28.2010   21.1720    3.5400 C.3    35  LYS35       0.1728
     56  C         28.3800   20.7810    2.0750 C.2    35  LYS35       0.2616
     57  O         29.3840   20.1680    1.6960 O.2    35  LYS35      -0.2715
     58  CB        27.1390   20.2780    4.2350 C.3    35  LYS35       0.0311
     59  CG        27.2210   20.3900    5.7500 C.3    35  LYS35       0.0038
     60  CD        26.4810   19.3640    6.5100 C.3    35  LYS35       0.0206
     61  CE        25.0920   19.2590    5.9980 C.3    35  LYS35       0.1093
     62  NZ        24.2940   20.4480    6.2810 N.3    35  LYS35      -0.1314
     63  N         27.4160   21.0900    1.2500 N.am   36  GLU36      -0.1963
     64  CA        27.5360   20.7550   -0.1570 C.3    36  GLU36       0.1733
     65  C         28.6410   21.5260   -0.9050 C.2    36  GLU36       0.2616
     66  O         29.2390   20.9580   -1.8460 O.2    36  GLU36      -0.2715
     67  CB        26.2180   20.8770   -0.8950 C.3    36  GLU36       0.0429
     68  CG        26.3280   20.6180   -2.3810 C.3    36  GLU36       0.1163
     69  CD        24.9780   20.5910   -3.0770 C.2    36  GLU36       0.3649
     70  OE1       23.9970   21.0290   -2.4700 O.co2  36  GLU36      -0.2457
     71  OE2       24.8860   20.0690   -4.1890 O.co2  36  GLU36      -0.2457
     72  N         28.9380   22.7630   -0.4910 N.am   37  LEU37      -0.1977
     73  CA        30.0540   23.4850   -1.0700 C.3    37  LEU37       0.1596
     74  C         31.3550   22.8310   -0.6890 C.2    37  LEU37       0.2287
     75  O         32.2860   22.7560   -1.4880 O.2    37  LEU37      -0.2864
     76  CB        30.1330   24.9170   -0.5050 C.3    37  LEU37       0.0297
     77  CG        28.9930   25.8350   -0.9240 C.3    37  LEU37       0.0022
     78  CD1       29.1240   27.2060   -0.2660 C.3    37  LEU37       0.0001
     79  CD2       29.0290   25.9370   -2.4600 C.3    37  LEU37       0.0001
     80  N         19.7990   14.4620   -1.8300 N.3    57  ASN57      -0.1240
     81  CA        19.2040   14.5930   -0.5170 C.3    57  ASN57       0.1654
     82  C         18.3690   13.3500   -0.1390 C.2    57  ASN57       0.2266
     83  O         17.2260   13.2050   -0.5370 O.2    57  ASN57      -0.2867
     84  CB        18.3790   15.8360   -0.5490 C.3    57  ASN57       0.1172
     85  CG        18.5700   16.6890    0.6310 C.2    57  ASN57       0.2816
     86  OD1       19.5200   17.5450    0.7330 O.2    57  ASN57      -0.2699
     87  ND2       17.6440   16.5470    1.5360 N.am   57  ASN57      -0.0053
     88  N         27.7620   13.0200   -3.6170 N.3    91  PHE91      -0.1241
     89  CA        27.5030   13.6670   -2.3420 C.3    91  PHE91       0.1605
     90  C         26.0960   13.2420   -1.8780 C.2    91  PHE91       0.2264
     91  O         25.1010   13.5650   -2.5730 O.2    91  PHE91      -0.2867
     92  CB        27.5710   15.2160   -2.4540 C.3    91  PHE91       0.0534
     93  CG        27.1210   15.9390   -1.2290 C.ar   91  PHE91      -0.0203
     94  CD1       27.7270   15.7090   -0.0160 C.ar   91  PHE91      -0.0042
     95  CD2       26.0390   16.8370   -1.2770 C.ar   91  PHE91      -0.0042
     96  CE1       27.3510   16.3660    1.1050 C.ar   91  PHE91      -0.0003
     97  CE2       25.6190   17.4710   -0.1240 C.ar   91  PHE91      -0.0003
     98  CZ        26.2940   17.2540    1.0580 C.ar   91  PHE91      -0.0000
     99  N         23.5250   13.8420    1.0280 N.3    93  ASP93      -0.1225
    100  CA        23.1260   14.6150    2.1750 C.3    93  ASP93       0.1805
    101  C         22.0480   13.9050    2.9460 C.2    93  ASP93       0.2597
    102  O         21.3760   13.0310    2.3920 O.2    93  ASP93      -0.2718
    103  CB        22.7060   16.0200    1.7820 C.3    93  ASP93       0.1424
    104  CG        22.6610   16.9690    2.9400 C.2    93  ASP93       0.3668
    105  OD1       23.1580   16.6920    4.0710 O.co2  93  ASP93      -0.2456
    106  OD2       21.9630   18.0070    2.8290 O.co2  93  ASP93      -0.2456
    107  N         21.9280   14.2420    4.2330 N.am   94  GLU94      -0.1979
    108  CA        20.8950   13.6850    5.1370 C.3    94  GLU94       0.1602
    109  C         21.0190   12.1770    5.2750 C.2    94  GLU94       0.2287
    110  O         20.0270   11.4230    5.2570 O.2    94  GLU94      -0.2864
    111  CB        19.4630   14.0900    4.6210 C.3    94  GLU94       0.0414
    112  CG        19.1990   15.5460    4.5890 C.3    94  GLU94       0.1140
    113  CD        18.0490   15.9320    3.6500 C.2    94  GLU94       0.3420
    114  OE1       17.6780   15.1890    2.5430 O.3    94  GLU94      -0.3232
    115  OE2       17.5900   17.0840    3.9650 O.2    94  GLU94      -0.2479
    116  N         30.7980   30.8200   14.8470 N.3   168  ARG168     -0.1197
    117  CA        31.7320   31.5650   13.9840 C.3   168  ARG168      0.1779
    118  C         31.3400   33.0530   14.0640 C.2   168  ARG168      0.2305
    119  O         31.1730   33.6780   13.0020 O.2   168  ARG168     -0.2863
    120  CB        31.5990   31.1190   12.4620 C.2   168  ARG168     -0.0007
    121  CG        31.7240   29.7140   12.1520 C.2   168  ARG168      0.0176
    122  CD        31.2840   29.2910   10.6760 C.3   168  ARG168      0.2464
    123  NE        31.9930   30.1220    9.7740 N.pl3 168  ARG168     -0.0815
    124  CZ        32.0060   30.0070    8.4740 C.cat 168  ARG168      0.5349
    125  NH1       31.3270   29.0420    7.8840 N.pl3 168  ARG168      0.1354
    126  NH2       32.6950   30.8940    7.7500 N.pl3 168  ARG168      0.1354
    127  N         29.9760   38.1920    6.6240 N.3   175  MET175     -0.1245
    128  CA        29.0980   37.6130    5.6640 C.3   175  MET175      0.1570
    129  C         27.8460   38.4590    5.4560 C.2   175  MET175      0.2261
    130  O         27.3760   38.5740    4.3370 O.2   175  MET175     -0.2867
    131  CB        28.7340   36.2400    6.1760 C.3   175  MET175      0.0387
    132  CG        29.8730   35.2340    6.0460 C.3   175  MET175      0.0595
    133  SD        29.3290   33.5560    6.6130 S.3   175  MET175     -0.1393
    134  CE        29.5870   32.8780    5.3100 C.3   175  MET175      0.0692
    135  N         28.7210   41.1460    3.0600 N.3   178  TYR178     -0.1227
    136  CA        28.8100   40.6350    1.6700 C.3   178  TYR178      0.1736
    137  C         27.4310   40.4100    1.0520 C.2   178  TYR178      0.2595
    138  O         27.1030   40.8090   -0.0910 O.2   178  TYR178     -0.2718
    139  CB        29.6350   39.3550    1.6690 C.3   178  TYR178      0.0548
    140  CG        29.7300   38.7110    0.2840 C.ar  178  TYR178     -0.0200
    141  CD1       30.7220   39.1140   -0.6420 C.ar  178  TYR178     -0.0009
    142  CD2       28.8210   37.7040   -0.1090 C.ar  178  TYR178     -0.0009
    143  CE1       30.8140   38.5010   -1.8900 C.ar  178  TYR178      0.0417
    144  CE2       28.8950   37.1330   -1.3930 C.ar  178  TYR178      0.0417
    145  CZ        29.8940   37.5330   -2.2430 C.ar  178  TYR178      0.1957
    146  OH        29.9260   36.9710   -3.4890 O.3   178  TYR178     -0.2866
    147  N         26.5280   39.7930    1.7940 N.am  179  PHE179     -0.1976
    148  CA        25.1940   39.4690    1.2530 C.3   179  PHE179      0.1639
    149  C         24.4020   40.7480    1.0710 C.2   179  PHE179      0.2290
    150  O         23.6320   40.8610    0.1320 O.2   179  PHE179     -0.2864
    151  CB        24.4340   38.5280    2.1950 C.3   179  PHE179      0.0560
    152  CG        25.0760   37.1520    2.3410 C.ar  179  PHE179     -0.0200
    153  CD1       25.1480   36.5160    3.5560 C.ar  179  PHE179     -0.0042
    154  CD2       25.4830   36.4690    1.2510 C.ar  179  PHE179     -0.0042
    155  CE1       25.6810   35.2370    3.6440 C.ar  179  PHE179     -0.0003
    156  CE2       26.0820   35.1840    1.3630 C.ar  179  PHE179     -0.0003
    157  CZ        26.1740   34.6130    2.5760 C.ar  179  PHE179     -0.0000
    158  N         24.0420   29.9760    7.4840 N.3   212  ILE212     -0.1231
    159  CA        24.4090   30.9040    6.4400 C.3   212  ILE212      0.1692
    160  C         23.2980   31.1120    5.4130 C.2   212  ILE212      0.2591
    161  O         23.0860   32.2280    4.9280 O.2   212  ILE212     -0.2718
    162  CB        25.7150   30.4150    5.7330 C.3   212  ILE212      0.0266
    163  CG1       26.8250   30.3250    6.7710 C.3   212  ILE212      0.0019
    164  CG2       26.0990   31.3700    4.7580 C.3   212  ILE212      0.0020
    165  CD1       28.1080   29.7230    6.2750 C.3   212  ILE212      0.0001
    166  N         22.5600   30.0550    5.0600 N.am  213  ALA213     -0.1980
    167  CA        21.4520   30.2120    4.1420 C.3   213  ALA213      0.1597
    168  C         20.4150   31.1990    4.7240 C.2   213  ALA213      0.2287
    169  O         19.8910   32.0770    4.0180 O.2   213  ALA213     -0.2864
    170  CB        20.8370   28.8510    3.8670 C.3   213  ALA213      0.0319
    171  N         21.7490   34.8410    4.7920 N.3   216  LYS216     -0.1245
    172  CA        21.6600   35.4470    3.5120 C.3   216  LYS216      0.1561
    173  C         20.2230   35.9330    3.2460 C.2   216  LYS216      0.2260
    174  O         19.9940   37.0170    2.6820 O.2   216  LYS216     -0.2867
    175  CB        22.0990   34.4720    2.3920 C.3   216  LYS216      0.0271
    176  CG        21.9000   34.9500    0.9000 C.3   216  LYS216      0.0035
    177  CD        22.4750   33.8820   -0.0910 C.3   216  LYS216      0.0206
    178  CE        22.4840   34.3290   -1.5350 C.3   216  LYS216      0.1093
    179  NZ        21.0730   34.4660   -1.9630 N.3   216  LYS216     -0.1314
@<TRIPOS>BOND
     1    71    69   ar
     2    88    89    1
     3   146   145    1
     4    69    70   ar
     5    69    68    1
     6    91    90    2
     7    79    77    1
     8    92    89    1
     9    92    93    1
    10    68    67    1
    11    89    90    1
    12   145   143   ar
    13   145   144   ar
    14   179   178    1
    15   143   141   ar
    16    66    65    2
    17    80    81    1
    18   178   177    1
    19    75    74    2
    20   144   142   ar
    21    95    93   ar
    22    95    97   ar
    23    93    94   ar
    24     1     2    1
    25    73    74    1
    26    73    76    1
    27    73    72    1
    28    77    76    1
    29    77    78    1
    30    65    72   am
    31    65    64    1
    32    67    64    1
    33   141   140   ar
    34    84    81    1
    35    84    85    1
    36    83    82    2
    37    81    82    1
    38     8     6    1
    39    64    63    1
    40    97    98   ar
    41   142   140   ar
    42   177   176    1
    43   138   137    2
    44     6     5    1
    45     6     7    1
    46    94    96   ar
    47   150   149    2
    48     2     5    1
    49     2     3    1
    50   140   139    1
    51    85    86    2
    52    85    87   am
    53   176   175    1
    54    99   100    1
    55   137   136    1
    56   137   147   am
    57    98    96   ar
    58    16    14    1
    59   149   148    1
    60     3     4    2
    61     3     9   am
    62    63    56   am
    63   154   156   ar
    64   154   152   ar
    65   148   147    1
    66   148   151    1
    67   156   157   ar
    68    87   114    1
    69   139   136    1
    70   136   135    1
    71    57    56    2
    72    14    15    1
    73    14    13    1
    74   103   100    1
    75   103   104    1
    76     9    10    1
    77    56    55    1
    78   100   101    1
    79   151   152    1
    80   152   153   ar
    81   175   172    1
    82   102   101    2
    83    53    52    2
    84   114   113    1
    85   157   155   ar
    86   174   173    2
    87   106   104   ar
    88    10    13    1
    89    10    11    1
    90   104   105   ar
    91   101   107   am
    92    52    51    1
    93    52    54   am
    94   173   172    1
    95   172   171    1
    96    55    54    1
    97    55    58    1
    98   153   155   ar
    99    51    50    1
   100   113   115    2
   101   113   112    1
   102   170   167    1
   103   169   168    2
   104   167   168    1
   105   167   166    1
   106   107   108    1
   107    58    59    1
   108    11    12    2
   109   130   129    2
   110   112   111    1
   111   111   108    1
   112    50    45   am
   113    27    26   ar
   114    27    25   ar
   115   164   162    1
   116   161   160    2
   117   166   160   am
   118    26    24   ar
   119   108   109    1
   120   110   109    2
   121   134   133    1
   122   160   159    1
   123   129   128    1
   124   128   131    1
   125   128   127    1
   126    25    23   ar
   127   162   159    1
   128   162   163    1
   129    59    60    1
   130    40    41    1
   131    40    39    1
   132    45    46    2
   133    45    44    1
   134    61    62    1
   135    61    60    1
   136   132   131    1
   137   132   133    1
   138    42    41    2
   139    41    43   am
   140    39    30   am
   141   165   163    1
   142    43    44    1
   143    24    22   ar
   144   159   158    1
   145    44    47    1
   146    23    22   ar
   147    22    21    1
   148    30    29    1
   149    30    31    2
   150    20    19    2
   151   126   124    1
   152    32    29    1
   153    32    33    1
   154    29    28    1
   155    48    47    1
   156   125   124    1
   157    47    49    1
   158    34    33    1
   159    34    35    1
   160    19    18    1
   161   124   123    2
   162    21    18    1
   163    18    17    1
   164    35    36    2
   165   123   122    1
   166    36    37    1
   167    36    38    1
   168   122   121    1
   169   121   120    2
   170   120   117    1
   171   119   118    2
   172   117   118    1
   173   117   116    1
