@<TRIPOS>MOLECULE
tmp/2c9dF00.pdb
 134 132 0 0 0
SMALL
GASTEIGER

@<TRIPOS>ATOM
      1  N         -2.2830   26.0760   16.3700 N.3    12  SER12      -0.1217
      2  CA        -3.0340   25.7110   17.5750 C.3    12  SER12       0.1889
      3  C         -3.3870   26.9540   18.4090 C.2    12  SER12       0.2288
      4  O         -2.7210   28.0010   18.2820 O.2    12  SER12      -0.2866
      5  CB        -2.1880   24.7380   18.4030 C.3    12  SER12       0.2089
      6  OG        -2.9060   24.2450   19.5230 O.3    12  SER12      -0.2183
      7  N         -4.2870   26.8210   22.0390 N.3    14  TRP14      -0.1227
      8  CA        -3.7470   26.6450   23.3890 C.3    14  TRP14       0.1737
      9  C         -2.6130   27.6500   23.5850 C.2    14  TRP14       0.2595
     10  O         -1.6810   27.6850   22.7780 O.2    14  TRP14      -0.2718
     11  CB        -3.2060   25.2200   23.5350 C.3    14  TRP14       0.0564
     12  CG        -3.2490   24.6680   24.9260 C.ar   14  TRP14       0.0003
     13  CD1       -2.3310   24.8640   25.9210 C.ar   14  TRP14       0.0946
     14  CD2       -4.2570   23.8110   25.4740 C.ar   14  TRP14       0.0152
     15  NE1       -2.7120   24.1880   27.0580 N.ar   14  TRP14      -0.2442
     16  CE2       -3.8910   23.5350   26.8120 C.ar   14  TRP14       0.0810
     17  CE3       -5.4400   23.2530   24.9660 C.ar   14  TRP14       0.0012
     18  CZ2       -4.6660   22.7250   27.6480 C.ar   14  TRP14       0.0191
     19  CZ3       -6.2100   22.4470   25.8010 C.ar   14  TRP14       0.0001
     20  CH2       -5.8170   22.1910   27.1260 C.ar   14  TRP14       0.0015
     21  N         -2.6910   28.4530   24.6500 N.am   15  HIS15      -0.1975
     22  CA        -1.8110   29.6200   24.8360 C.3    15  HIS15       0.1656
     23  C         -1.9800   30.5840   23.6530 C.2    15  HIS15       0.2291
     24  O         -1.1500   30.6120   22.7300 O.2    15  HIS15      -0.2864
     25  CB        -0.3350   29.2130   25.0340 C.3    15  HIS15       0.0771
     26  CG        -0.0990   28.2820   26.1890 C.ar   15  HIS15       0.0820
     27  ND1       -0.4560   28.5890   27.4870 N.ar   15  HIS15      -0.2267
     28  CD2        0.4870   27.0600   26.2430 C.ar   15  HIS15       0.1154
     29  CE1       -0.1160   27.5910   28.2850 C.ar   15  HIS15       0.1986
     30  NE2        0.4620   26.6520   27.5560 N.ar   15  HIS15      -0.2212
     31  N         -7.6360   23.3780   18.0380 N.3    44  LEU44      -0.1231
     32  CA        -7.6770   23.5400   19.4920 C.3    44  LEU44       0.1693
     33  C         -6.4280   23.0650   20.2260 C.2    44  LEU44       0.2593
     34  O         -6.0470   23.6600   21.2390 O.2    44  LEU44      -0.2718
     35  CB        -8.9470   22.9290   20.0960 C.3    44  LEU44       0.0284
     36  CG       -10.0730   23.9420   20.3760 C.3    44  LEU44       0.0019
     37  CD1      -10.6700   24.5440   19.0960 C.3    44  LEU44       0.0001
     38  CD2      -11.1610   23.3150   21.2310 C.3    44  LEU44       0.0001
     39  N         -5.7910   22.0110   19.7150 N.am   45  GLY45      -0.1942
     40  CA        -4.5700   21.4770   20.3290 C.3    45  GLY45       0.2014
     41  C         -3.5280   21.0130   19.3270 C.2    45  GLY45       0.2639
     42  O         -3.8300   20.8440   18.1390 O.2    45  GLY45      -0.2714
     43  N         -2.3020   20.7950   19.8120 N.am   46  ALA46      -0.1963
     44  CA        -1.1920   20.3510   18.9580 C.3    46  ALA46       0.1728
     45  C         -1.4020   18.9560   18.3730 C.2    46  ALA46       0.2616
     46  O         -1.0080   18.7010   17.2350 O.2    46  ALA46      -0.2715
     47  CB         0.1270   20.4180   19.7070 C.3    46  ALA46       0.0334
     48  N         -2.0210   18.0620   19.1500 N.am   47  ILE47      -0.1963
     49  CA        -2.3250   16.6910   18.7070 C.3    47  ILE47       0.1727
     50  C         -3.1730   16.6890   17.4330 C.2    47  ILE47       0.2616
     51  O         -3.0490   15.7900   16.5910 O.2    47  ILE47      -0.2715
     52  CB        -3.0580   15.8700   19.8180 C.3    47  ILE47       0.0290
     53  CG1       -2.1980   15.7440   21.0870 C.3    47  ILE47       0.0022
     54  CG2       -3.4850   14.4940   19.3100 C.3    47  ILE47       0.0023
     55  CD1       -0.9690   14.8310   20.9740 C.3    47  ILE47       0.0001
     56  N         -4.0170   17.7110   17.2960 N.am   48  GLU48      -0.1977
     57  CA        -4.9200   17.8380   16.1580 C.3    48  GLU48       0.1602
     58  C         -4.2790   18.4380   14.8910 C.2    48  GLU48       0.2287
     59  O         -4.9360   18.5160   13.8430 O.2    48  GLU48      -0.2864
     60  CB        -6.1780   18.6140   16.5640 C.3    48  GLU48       0.0415
     61  CG        -7.1550   17.8290   17.4530 C.3    48  GLU48       0.1163
     62  CD        -6.7640   17.8200   18.9310 C.2    48  GLU48       0.3649
     63  OE1       -6.5880   18.9100   19.5140 O.co2  48  GLU48      -0.2457
     64  OE2       -6.6500   16.7230   19.5170 O.co2  48  GLU48      -0.2457
     65  N          2.5840   25.9570   20.6130 N.3    68  VAL68      -0.1231
     66  CA         3.4410   25.9750   21.8010 C.3    68  VAL68       0.1692
     67  C          3.0490   24.8580   22.7630 C.2    68  VAL68       0.2592
     68  O          1.8710   24.7410   23.1410 O.2    68  VAL68      -0.2718
     69  CB         3.3520   27.3250   22.5670 C.3    68  VAL68       0.0266
     70  CG1        4.5040   27.4520   23.5580 C.3    68  VAL68       0.0020
     71  CG2        3.3540   28.5030   21.6070 C.3    68  VAL68       0.0020
     72  N          4.0380   24.0420   23.1550 N.am   69  VAL69      -0.1966
     73  CA         3.8270   23.0180   24.1740 C.3    69  VAL69       0.1727
     74  C          4.7660   23.2890   25.3530 C.2    69  VAL69       0.2616
     75  O          5.9890   23.2930   25.1860 O.2    69  VAL69      -0.2715
     76  CB         4.0330   21.5760   23.6180 C.3    69  VAL69       0.0290
     77  CG1        3.5800   20.5320   24.6330 C.3    69  VAL69       0.0023
     78  CG2        3.2790   21.3780   22.3070 C.3    69  VAL69       0.0023
     79  N          4.1830   23.5220   26.5320 N.am   70  ILE70      -0.1977
     80  CA         4.9340   23.8540   27.7510 C.3    70  ILE70       0.1596
     81  C          4.8520   22.7220   28.7810 C.2    70  ILE70       0.2287
     82  O          3.7610   22.2320   29.0770 O.2    70  ILE70      -0.2864
     83  CB         4.4310   25.1900   28.3680 C.3    70  ILE70       0.0276
     84  CG1        4.8160   26.3740   27.4670 C.3    70  ILE70       0.0022
     85  CG2        4.9840   25.3910   29.7840 C.3    70  ILE70       0.0022
     86  CD1        4.0740   27.6730   27.7590 C.3    70  ILE70       0.0001
     87  N          4.8080   20.3880   32.1430 N.3    72  GLY72      -0.1210
     88  CA         4.1290   20.4680   33.4310 C.3    72  GLY72       0.1956
     89  C          4.8410   19.6780   34.5140 C.2    72  GLY72       0.2612
     90  O          6.0720   19.6720   34.5900 O.2    72  GLY72      -0.2717
     91  N          4.0570   19.0050   35.3540 N.am   73  GLN73      -0.1965
     92  CA         4.6000   18.2320   36.4720 C.3    73  GLN73       0.1733
     93  C          4.5140   16.7180   36.2520 C.2    73  GLN73       0.2617
     94  O          5.0050   15.9350   37.0740 O.2    73  GLN73      -0.2715
     95  CB         3.9330   18.6570   37.7860 C.3    73  GLN73       0.0408
     96  CG         4.2510   20.1000   38.1850 C.3    73  GLN73       0.0908
     97  CD         3.2940   20.6680   39.2310 C.2    73  GLN73       0.2608
     98  OE1        2.7140   19.9320   40.0350 O.2    73  GLN73      -0.2717
     99  NE2        3.1320   21.9920   39.2250 N.am   73  GLN73      -0.0878
    100  N          3.9040   16.3150   35.1360 N.am   74  THR74      -0.1951
    101  CA         3.7920   14.9000   34.7700 C.3    74  THR74       0.1897
    102  C          4.5470   14.6110   33.4610 C.2    74  THR74       0.2313
    103  O          4.8590   15.5440   32.7110 O.2    74  THR74      -0.2863
    104  CB         2.3060   14.4460   34.6540 C.3    74  THR74       0.1794
    105  OG1        1.6450   15.1830   33.6190 O.3    74  THR74      -0.2208
    106  CG2        1.5690   14.6520   35.9720 C.3    74  THR74       0.0378
    107  N          3.4820   13.7880   30.8690 N.3    76  HIS76      -0.1226
    108  CA         2.5430   14.0230   29.7700 C.3    76  HIS76       0.1752
    109  C          3.1680   14.8480   28.6370 C.2    76  HIS76       0.2596
    110  O          2.9520   14.5500   27.4560 O.2    76  HIS76      -0.2718
    111  CB         1.2710   14.6940   30.2910 C.3    76  HIS76       0.0759
    112  CG         0.1160   14.6080   29.3430 C.ar   76  HIS76       0.0818
    113  ND1       -0.6190   13.4540   29.1690 N.ar   76  HIS76      -0.2268
    114  CD2       -0.4280   15.5310   28.5160 C.ar   76  HIS76       0.1154
    115  CE1       -1.5680   13.6710   28.2760 C.ar   76  HIS76       0.1986
    116  NE2       -1.4740   14.9240   27.8630 N.ar   76  HIS76      -0.2212
    117  N          3.9470   15.8660   29.0110 N.am   77  PHE77      -0.1976
    118  CA         4.6530   16.7190   28.0530 C.3    77  PHE77       0.1639
    119  C          5.4190   15.9030   27.0140 C.2    77  PHE77       0.2290
    120  O          5.3940   16.2290   25.8220 O.2    77  PHE77      -0.2864
    121  CB         5.6120   17.6870   28.7600 C.3    77  PHE77       0.0560
    122  CG         6.5160   18.4400   27.8140 C.ar   77  PHE77      -0.0200
    123  CD1        6.0700   19.5960   27.1740 C.ar   77  PHE77      -0.0042
    124  CD2        7.8040   17.9810   27.5450 C.ar   77  PHE77      -0.0042
    125  CE1        6.8940   20.2910   26.2890 C.ar   77  PHE77      -0.0003
    126  CE2        8.6360   18.6670   26.6590 C.ar   77  PHE77      -0.0003
    127  CZ         8.1800   19.8260   26.0310 C.ar   77  PHE77      -0.0000
    128  N          2.9240   14.3380   24.2270 N.3    80  VAL80      -0.1245
    129  CA         2.3260   15.2810   23.2810 C.3    80  VAL80       0.1561
    130  C          3.3090   15.5880   22.1400 C.2    80  VAL80       0.2260
    131  O          2.9360   15.5280   20.9640 O.2    80  VAL80      -0.2867
    132  CB         1.8480   16.5760   23.9810 C.3    80  VAL80       0.0252
    133  CG1        1.4190   17.6290   22.9590 C.3    80  VAL80       0.0019
    134  CG2        0.7080   16.2720   24.9490 C.3    80  VAL80       0.0019
@<TRIPOS>BOND
     1    59    58    2
     2    58    57    1
     3    57    60    1
     4    57    56    1
     5     1     2    1
     6    60    61    1
     7    51    50    2
     8    46    45    2
     9    56    50   am
    10    50    49    1
    11    61    62    1
    12     2     5    1
    13     2     3    1
    14    31    32    1
    15    42    41    2
    16     4     3    2
    17    45    44    1
    18    45    48   am
    19     5     6    1
    20    49    48    1
    21    49    52    1
    22    62    63   ar
    23    62    64   ar
    24    44    47    1
    25    44    43    1
    26    37    36    1
    27    54    52    1
    28    41    43   am
    29    41    40    1
    30    32    35    1
    31    32    33    1
    32    39    33   am
    33    39    40    1
    34    52    53    1
    35    35    36    1
    36    33    34    2
    37    36    38    1
    38    65    66    1
    39   131   130    2
    40    55    53    1
    41    71    69    1
    42    66    69    1
    43    66    67    1
    44     7     8    1
    45   130   129    1
    46    78    76    1
    47    69    70    1
    48    24    23    2
    49    67    68    2
    50    67    72   am
    51    10     9    2
    52   133   132    1
    53    72    73    1
    54   129   132    1
    55   129   128    1
    56     8    11    1
    57     8     9    1
    58    11    12    1
    59     9    21   am
    60    76    73    1
    61    76    77    1
    62    23    22    1
    63   132   134    1
    64    73    74    1
    65    21    22    1
    66    22    25    1
    67    12    14   ar
    68    12    13   ar
    69    17    14   ar
    70    17    19   ar
    71    25    26    1
    72    75    74    2
    73    74    79   am
    74    14    16   ar
    75    19    20   ar
    76   120   119    2
    77    13    15   ar
    78   127   125   ar
    79   127   126   ar
    80    26    28   ar
    81    26    27   ar
    82    28    30   ar
    83   125   123   ar
    84    79    80    1
    85   126   124   ar
    86    16    15   ar
    87    16    18   ar
    88   119   118    1
    89    20    18   ar
    90   123   122   ar
    91   110   109    2
    92    84    86    1
    93    84    83    1
    94    27    29   ar
    95   124   122   ar
    96    30    29   ar
    97    80    83    1
    98    80    81    1
    99   122   121    1
   100   116   115   ar
   101   116   114   ar
   102   118   121    1
   103   118   117    1
   104   115   113   ar
   105    83    85    1
   106   114   112   ar
   107   109   117   am
   108   109   108    1
   109    81    82    2
   110   113   112   ar
   111   112   111    1
   112   108   111    1
   113   108   107    1
   114    87    88    1
   115   103   102    2
   116    88    89    1
   117   102   101    1
   118   105   104    1
   119    89    90    2
   120    89    91   am
   121   104   101    1
   122   104   106    1
   123   101   100    1
   124   100    93   am
   125    91    92    1
   126    93    92    1
   127    93    94    2
   128    92    95    1
   129    95    96    1
   130    96    97    1
   131    99    97   am
   132    97    98    2
