@<TRIPOS>MOLECULE
tmp/2c9eA00.pdb
 236 222 0 0 0
SMALL
GASTEIGER

@<TRIPOS>ATOM
      1  N         14.9080   22.8760    4.9720 N.3    10  PHE10      -0.1241
      2  CA        15.6230   21.7400    5.5340 C.3    10  PHE10       0.1605
      3  C         15.7410   20.6280    4.4950 C.2    10  PHE10       0.2264
      4  O         16.8050   20.0050    4.3110 O.2    10  PHE10      -0.2867
      5  CB        14.9000   21.2410    6.7900 C.3    10  PHE10       0.0534
      6  CG        15.5010   19.9860    7.3980 C.ar   10  PHE10      -0.0203
      7  CD1       16.7220   20.0430    8.0800 C.ar   10  PHE10      -0.0042
      8  CD2       14.7850   18.7800    7.3640 C.ar   10  PHE10      -0.0042
      9  CE1       17.2540   18.9130    8.7620 C.ar   10  PHE10      -0.0003
     10  CE2       15.2690   17.6310    8.0180 C.ar   10  PHE10      -0.0003
     11  CZ        16.5240   17.6790    8.7400 C.ar   10  PHE10      -0.0000
     12  N         21.5290    3.8990    3.1150 N.3    23  TRP23      -0.1241
     13  CA        20.2940    3.5140    3.7690 C.3    23  TRP23       0.1605
     14  C         20.1000    2.0270    3.9270 C.2    23  TRP23       0.2264
     15  O         19.5930    1.5800    4.9510 O.2    23  TRP23      -0.2867
     16  CB        19.0940    4.0790    3.0200 C.3    23  TRP23       0.0550
     17  CG        19.1600    5.5470    2.9680 C.ar   23  TRP23       0.0003
     18  CD1       19.5400    6.3080    1.9030 C.ar   23  TRP23       0.0946
     19  CD2       18.9500    6.4530    4.0570 C.ar   23  TRP23       0.0152
     20  NE1       19.5840    7.6380    2.2510 N.ar   23  TRP23      -0.2442
     21  CE2       19.2310    7.7550    3.5750 C.ar   23  TRP23       0.0810
     22  CE3       18.5520    6.2970    5.3940 C.ar   23  TRP23       0.0012
     23  CZ2       19.1210    8.8940    4.3860 C.ar   23  TRP23       0.0191
     24  CZ3       18.4380    7.4180    6.1970 C.ar   23  TRP23       0.0001
     25  CH2       18.7220    8.7100    5.6820 C.ar   23  TRP23       0.0015
     26  N         24.5890    3.3470   11.7540 N.3    29  ILE29      -0.1245
     27  CA        23.3120    3.2670   12.4550 C.3    29  ILE29       0.1561
     28  C         22.9500    1.8090   12.7430 C.2    29  ILE29       0.2260
     29  O         22.6050    1.4750   13.8690 O.2    29  ILE29      -0.2867
     30  CB        22.2010    3.9160   11.6200 C.3    29  ILE29       0.0252
     31  CG1       22.4550    5.4080   11.5480 C.3    29  ILE29       0.0019
     32  CG2       20.8340    3.6730   12.2110 C.3    29  ILE29       0.0019
     33  CD1       21.8610    6.1590   12.6920 C.3    29  ILE29       0.0001
     34  N         25.0890    0.7230   15.4690 N.3    32  TYR32      -0.1227
     35  CA        24.7830    1.3530   16.7490 C.3    32  TYR32       0.1736
     36  C         23.5250    0.7230   17.3900 C.2    32  TYR32       0.2595
     37  O         23.5410    0.4120   18.5640 O.2    32  TYR32      -0.2718
     38  CB        24.5620    2.8460   16.5820 C.3    32  TYR32       0.0548
     39  CG        23.9040    3.4750   17.7630 C.ar   32  TYR32      -0.0200
     40  CD1       24.6630    3.8930   18.8610 C.ar   32  TYR32      -0.0009
     41  CD2       22.5030    3.6090   17.8250 C.ar   32  TYR32      -0.0009
     42  CE1       24.0540    4.4240   20.0030 C.ar   32  TYR32       0.0417
     43  CE2       21.8700    4.1410   18.9860 C.ar   32  TYR32       0.0417
     44  CZ        22.6510    4.5510   20.0700 C.ar   32  TYR32       0.1957
     45  OH        22.0680    5.1070   21.2130 O.3    32  TYR32      -0.2866
     46  N         22.4490    0.5290   16.6240 N.am   33  ILE33      -0.1980
     47  CA        21.2300   -0.0610   17.2000 C.3    33  ILE33       0.1595
     48  C         21.5030   -1.4770   17.7130 C.2    33  ILE33       0.2287
     49  O         21.1020   -1.8290   18.8230 O.2    33  ILE33      -0.2864
     50  CB        20.0750   -0.1040   16.2030 C.3    33  ILE33       0.0276
     51  CG1       19.7480    1.3030   15.7270 C.3    33  ILE33       0.0022
     52  CG2       18.8660   -0.7530   16.8600 C.3    33  ILE33       0.0022
     53  CD1       18.8300    1.3890   14.5350 C.3    33  ILE33       0.0001
     54  N         13.9080    3.7480   25.4520 N.3    48  VAL48      -0.1245
     55  CA        12.7840    3.2510   24.6550 C.3    48  VAL48       0.1561
     56  C         11.4730    3.6270   25.3540 C.2    48  VAL48       0.2260
     57  O         10.4870    3.9980   24.6950 O.2    48  VAL48      -0.2867
     58  CB        12.8890    1.7630   24.4870 C.3    48  VAL48       0.0252
     59  CG1       11.5510    1.1740   23.9910 C.3    48  VAL48       0.0019
     60  CG2       13.9980    1.4750   23.5480 C.3    48  VAL48       0.0019
     61  N         10.8610    7.1380   24.5450 N.3    51  LEU51      -0.1245
     62  CA        10.4360    7.2750   23.1470 C.3    51  LEU51       0.1561
     63  C          8.8940    7.0210   22.9630 C.2    51  LEU51       0.2260
     64  O          8.1580    7.7450   22.2250 O.2    51  LEU51      -0.2867
     65  CB        11.2560    6.2890   22.3090 C.3    51  LEU51       0.0270
     66  CG        11.0030    6.2780   20.8050 C.3    51  LEU51       0.0019
     67  CD1       11.5400    7.5720   20.1870 C.3    51  LEU51       0.0001
     68  CD2       11.6790    5.0070   20.1870 C.3    51  LEU51       0.0001
     69  N          1.6330   12.8890   21.2850 N.3    58  MET58      -0.1245
     70  CA         1.3270   13.4090   19.9540 C.3    58  MET58       0.1570
     71  C         -0.1230   13.2740   19.5140 C.2    58  MET58       0.2261
     72  O         -0.8770   12.4370   20.0260 O.2    58  MET58      -0.2867
     73  CB         2.2130   12.7060   18.9290 C.3    58  MET58       0.0387
     74  CG         3.7230   13.0230   19.1050 C.3    58  MET58       0.0595
     75  SD         4.8020   11.9280   18.1000 S.3    58  MET58      -0.1393
     76  CE         6.4190   12.6560   18.4050 C.3    58  MET58       0.0692
     77  N          0.2650   11.6520   13.6340 N.3    63  VAL63      -0.1245
     78  CA         1.1240   10.4520   13.7210 C.3    63  VAL63       0.1561
     79  C          0.7880    9.6260   12.4890 C.2    63  VAL63       0.2260
     80  O          1.6470    9.0950   11.7760 O.2    63  VAL63      -0.2867
     81  CB         0.8010    9.5810   15.0020 C.3    63  VAL63       0.0252
     82  CG1        1.3630    8.1630   14.8510 C.3    63  VAL63       0.0019
     83  CG2        1.4110   10.2190   16.2450 C.3    63  VAL63       0.0019
     84  N          2.1390   11.2380    9.3020 N.3    66  ALA66      -0.1231
     85  CA         3.6030   11.0450    9.2830 C.3    66  ALA66       0.1694
     86  C          3.9980    9.6330    8.8190 C.2    66  ALA66       0.2591
     87  O          4.9410    9.4690    8.0410 O.2    66  ALA66      -0.2718
     88  CB         4.1700   11.3270   10.6770 C.3    66  ALA66       0.0304
     89  N          3.2950    8.6210    9.3120 N.am   67  VAL67      -0.1980
     90  CA         3.5210    7.2340    8.9300 C.3    67  VAL67       0.1595
     91  C          3.0810    7.0700    7.4510 C.2    67  VAL67       0.2287
     92  O          3.7840    6.4450    6.6450 O.2    67  VAL67      -0.2864
     93  CB         2.7090    6.2570    9.8620 C.3    67  VAL67       0.0276
     94  CG1        2.7970    4.8320    9.3460 C.3    67  VAL67       0.0022
     95  CG2        3.3040    6.2500   11.2570 C.3    67  VAL67       0.0022
     96  N          5.7630    8.2310    5.1850 N.3    70  HIS70      -0.1241
     97  CA         6.9110    7.3450    5.0570 C.3    70  HIS70       0.1621
     98  C          6.5230    6.2340    4.1360 C.2    70  HIS70       0.2264
     99  O          7.3140    5.8230    3.3110 O.2    70  HIS70      -0.2867
    100  CB         7.3530    6.7610    6.4180 C.3    70  HIS70       0.0745
    101  CG         8.1760    7.7050    7.2320 C.ar   70  HIS70       0.0817
    102  ND1        7.6160    8.7150    7.9870 N.ar   70  HIS70      -0.2268
    103  CD2        9.5230    7.8190    7.3830 C.ar   70  HIS70       0.1154
    104  CE1        8.5850    9.4070    8.5800 C.ar   70  HIS70       0.1986
    105  NE2        9.7500    8.8850    8.2290 N.ar   70  HIS70      -0.2212
    106  N          8.3810    5.2590    0.6970 N.3    74  LEU74      -0.1245
    107  CA         8.9910    3.9400    0.4660 C.3    74  LEU74       0.1561
    108  C          8.5870    3.4320   -0.9410 C.2    74  LEU74       0.2260
    109  O          9.3930    2.8300   -1.6610 O.2    74  LEU74      -0.2867
    110  CB         8.5610    2.9460    1.5610 C.3    74  LEU74       0.0270
    111  CG         9.2620    3.1760    2.9160 C.3    74  LEU74       0.0019
    112  CD1        8.5960    2.3340    3.9910 C.3    74  LEU74       0.0001
    113  CD2       10.7760    2.7700    2.7700 C.3    74  LEU74       0.0001
    114  N          6.5180   15.1050    9.4840 N.3    97  LEU97      -0.1245
    115  CA         7.1940   14.9470   10.7990 C.3    97  LEU97       0.1561
    116  C          7.2590   16.2800   11.5420 C.2    97  LEU97       0.2260
    117  O          7.1530   16.3260   12.7720 O.2    97  LEU97      -0.2867
    118  CB         8.6400   14.4380   10.6090 C.3    97  LEU97       0.0270
    119  CG         8.8170   12.9530   10.2860 C.3    97  LEU97       0.0019
    120  CD1       10.2510   12.6320    9.9580 C.3    97  LEU97       0.0001
    121  CD2        8.3310   12.1540   11.4940 C.3    97  LEU97       0.0001
    122  N          3.9540   16.6760   13.0250 N.3   100  MET100     -0.1230
    123  CA         3.6880   15.7540   14.0910 C.3   100  MET100      0.1702
    124  C          4.4980   16.1580   15.3250 C.2   100  MET100      0.2592
    125  O          4.0180   16.0140   16.4640 O.2   100  MET100     -0.2718
    126  CB         4.0220   14.3310   13.6570 C.3   100  MET100      0.0401
    127  CG         3.8210   13.2670   14.7420 C.3   100  MET100      0.0596
    128  SD         4.6380   11.7030   14.1290 S.3   100  MET100     -0.1393
    129  CE         6.4030   11.9540   14.7160 C.3   100  MET100      0.0692
    130  N          5.7210   16.6500   15.1360 N.am  101  ILE101     -0.1980
    131  CA         6.5140   17.0320   16.3090 C.3   101  ILE101      0.1595
    132  C          5.9510   18.2960   16.9860 C.2   101  ILE101      0.2287
    133  O          6.1190   18.5110   18.2070 O.2   101  ILE101     -0.2864
    134  CB         8.0210   17.2320   15.9460 C.3   101  ILE101      0.0276
    135  CG1        8.5770   15.8900   15.4790 C.3   101  ILE101      0.0022
    136  CG2        8.8140   17.7810   17.1500 C.3   101  ILE101      0.0022
    137  CD1        9.9050   15.9670   14.9190 C.3   101  ILE101      0.0001
    138  N          9.8880   15.6000   24.2320 N.3   109  PHE109     -0.1241
    139  CA        10.4580   15.4000   22.9360 C.3   109  PHE109      0.1605
    140  C         11.9110   15.8070   22.8980 C.2   109  PHE109      0.2264
    141  O         12.7750   15.0510   22.4090 O.2   109  PHE109     -0.2867
    142  CB         9.7060   16.1680   21.8550 C.3   109  PHE109      0.0534
    143  CG        10.1170   15.7620   20.4770 C.ar  109  PHE109     -0.0203
    144  CD1       11.2660   16.3130   19.8820 C.ar  109  PHE109     -0.0042
    145  CD2        9.3920   14.7800   19.7980 C.ar  109  PHE109     -0.0042
    146  CE1       11.6930   15.8890   18.6180 C.ar  109  PHE109     -0.0003
    147  CE2        9.8000   14.3380   18.5310 C.ar  109  PHE109     -0.0003
    148  CZ        10.9580   14.8980   17.9360 C.ar  109  PHE109     -0.0000
    149  N         19.3090    8.1310   24.5410 N.3   116  PHE116     -0.1241
    150  CA        19.9470    6.8690   24.1410 C.3   116  PHE116      0.1605
    151  C         21.4520    6.8040   24.4250 C.2   116  PHE116      0.2264
    152  O         22.1480    7.7710   24.2740 O.2   116  PHE116     -0.2867
    153  CB        19.6890    6.5860   22.6390 C.3   116  PHE116      0.0534
    154  CG        18.2950    6.0990   22.3680 C.ar  116  PHE116     -0.0203
    155  CD1       17.2660    6.9980   22.1100 C.ar  116  PHE116     -0.0042
    156  CD2       17.9900    4.7480   22.5090 C.ar  116  PHE116     -0.0042
    157  CE1       15.9430    6.5540   22.0140 C.ar  116  PHE116     -0.0003
    158  CE2       16.6940    4.2900   22.4190 C.ar  116  PHE116     -0.0003
    159  CZ        15.6590    5.1740   22.1770 C.ar  116  PHE116     -0.0000
    160  N         24.9230    8.1490   21.9570 N.3   119  SER119     -0.1217
    161  CA        24.4340    8.6590   20.6850 C.3   119  SER119      0.1889
    162  C         25.4330    9.6970   20.1380 C.2   119  SER119      0.2288
    163  O         25.3690   10.0470   18.9620 O.2   119  SER119     -0.2866
    164  CB        23.0480    9.2630   20.8640 C.3   119  SER119      0.2089
    165  OG        23.1700   10.4620   21.5810 O.3   119  SER119     -0.2183
    166  N         27.9740    8.0370   17.7860 N.3   122  LEU122     -0.1245
    167  CA        27.3280    7.7170   16.5320 C.3   122  LEU122      0.1561
    168  C         27.2720    8.9620   15.6900 C.2   122  LEU122      0.2260
    169  O         27.6020    8.9500   14.5150 O.2   122  LEU122     -0.2867
    170  CB        25.9140    7.2100   16.7640 C.3   122  LEU122      0.0270
    171  CG        25.0160    7.2730   15.5290 C.3   122  LEU122      0.0019
    172  CD1       25.5620    6.3550   14.4250 C.3   122  LEU122      0.0001
    173  CD2       23.5840    6.9030   15.9380 C.3   122  LEU122      0.0001
    174  N         18.4060   22.7860   10.0040 N.3   142  PHE142     -0.1241
    175  CA        17.6480   21.9550   10.9800 C.3   142  PHE142      0.1605
    176  C         17.2430   22.8480   12.2000 C.2   142  PHE142      0.2264
    177  O         16.0910   22.8190   12.6730 O.2   142  PHE142     -0.2867
    178  CB        18.4990   20.7730   11.4520 C.3   142  PHE142      0.0534
    179  CG        17.8760   19.9800   12.5880 C.ar  142  PHE142     -0.0203
    180  CD1       16.7820   19.1620   12.3780 C.ar  142  PHE142     -0.0042
    181  CD2       18.4000   20.0480   13.8720 C.ar  142  PHE142     -0.0042
    182  CE1       16.2420   18.4260   13.4390 C.ar  142  PHE142     -0.0003
    183  CE2       17.8490   19.3150   14.9030 C.ar  142  PHE142     -0.0003
    184  CZ        16.7920   18.5180   14.6830 C.ar  142  PHE142     -0.0000
    185  N         18.8750  -11.1680   17.8220 N.3   194  ILE194     -0.1245
    186  CA        18.1780   -9.9740   17.3680 C.3   194  ILE194      0.1561
    187  C         19.1640   -8.8910   16.9930 C.2   194  ILE194      0.2260
    188  O         18.9880   -8.1870   15.9800 O.2   194  ILE194     -0.2867
    189  CB        17.1910   -9.4930   18.4780 C.3   194  ILE194      0.0252
    190  CG1       16.0850  -10.5410   18.6410 C.3   194  ILE194      0.0019
    191  CG2       16.5470   -8.1340   18.1260 C.3   194  ILE194      0.0019
    192  CD1       15.0060  -10.4270   17.5640 C.3   194  ILE194      0.0001
    193  N         20.7250   -9.7440   13.7020 N.3   197  TYR197     -0.1227
    194  CA        19.7530   -9.5180   12.6210 C.3   197  TYR197      0.1736
    195  C         19.6990   -8.0250   12.2550 C.2   197  TYR197      0.2595
    196  O         19.8300   -7.6360   11.0810 O.2   197  TYR197     -0.2718
    197  CB        18.3670  -10.0000   13.0620 C.3   197  TYR197      0.0548
    198  CG        17.3330   -9.9010   11.9660 C.ar  197  TYR197     -0.0200
    199  CD1       17.3070  -10.8210   10.9330 C.ar  197  TYR197     -0.0009
    200  CD2       16.4470   -8.8100   11.9020 C.ar  197  TYR197     -0.0009
    201  CE1       16.4420  -10.6690    9.8380 C.ar  197  TYR197      0.0417
    202  CE2       15.5590   -8.6490   10.8070 C.ar  197  TYR197      0.0417
    203  CZ        15.5710   -9.5860    9.7850 C.ar  197  TYR197      0.1957
    204  OH        14.6920   -9.4540    8.7260 O.3   197  TYR197     -0.2866
    205  N         19.5460   -7.1740   13.2680 N.am  198  ILE198     -0.1980
    206  CA        19.4940   -5.7460   13.0450 C.3   198  ILE198      0.1595
    207  C         20.7760   -5.2260   12.3750 C.2   198  ILE198      0.2287
    208  O         20.7320   -4.3890   11.4680 O.2   198  ILE198     -0.2864
    209  CB        19.2750   -5.0190   14.3890 C.3   198  ILE198      0.0276
    210  CG1       17.8540   -5.3330   14.9190 C.3   198  ILE198      0.0022
    211  CG2       19.5870   -3.5320   14.2450 C.3   198  ILE198      0.0022
    212  CD1       17.5970   -4.7980   16.3380 C.3   198  ILE198      0.0001
    213  N          9.4520   -3.1260    5.6160 N.3   213  ILE213     -0.1245
    214  CA         9.1090   -1.9780    6.4700 C.3   213  ILE213      0.1561
    215  C          7.8390   -1.3320    5.9590 C.2   213  ILE213      0.2260
    216  O          6.9540   -0.9420    6.7340 O.2   213  ILE213     -0.2867
    217  CB        10.2000   -0.8990    6.4610 C.3   213  ILE213      0.0252
    218  CG1       11.5090   -1.4680    7.0640 C.3   213  ILE213      0.0019
    219  CG2        9.6850    0.3660    7.1860 C.3   213  ILE213      0.0019
    220  CD1       11.3630   -1.9820    8.5230 C.3   213  ILE213      0.0001
    221  N          4.2840   -0.7130    7.8630 N.3   217  LEU217     -0.1245
    222  CA         3.6410    0.5600    8.0760 C.3   217  LEU217      0.1561
    223  C          2.2020    0.4780    7.5240 C.2   217  LEU217      0.2260
    224  O          1.2740    0.9130    8.1520 O.2   217  LEU217     -0.2867
    225  CB         4.4290    1.6650    7.3610 C.3   217  LEU217      0.0270
    226  CG         5.8110    1.9460    7.9300 C.3   217  LEU217      0.0019
    227  CD1        6.2450    3.3300    7.3940 C.3   217  LEU217      0.0001
    228  CD2        5.7830    1.9130    9.4970 C.3   217  LEU217      0.0001
    229  N         16.0690  -16.3930   11.2910 N.3   287  LEU287     -0.1245
    230  CA        16.1150  -15.7260   12.5810 C.3   287  LEU287      0.1561
    231  C         15.2550  -16.4850   13.5780 C.2   287  LEU287      0.2260
    232  O         15.6810  -16.7010   14.6980 O.2   287  LEU287     -0.2867
    233  CB        15.6390  -14.2850   12.4840 C.3   287  LEU287      0.0270
    234  CG        15.4080  -13.5690   13.8380 C.3   287  LEU287      0.0019
    235  CD1       16.7220  -13.3690   14.5870 C.3   287  LEU287      0.0001
    236  CD2       14.6750  -12.1900   13.5880 C.3   287  LEU287      0.0001
@<TRIPOS>BOND
     1   109   108    2
     2   108   107    1
     3   107   106    1
     4   107   110    1
     5   110   111    1
     6    18    20   ar
     7    18    17   ar
     8    20    21   ar
     9   113   111    1
    10   111   112    1
    11    17    16    1
    12    17    19   ar
    13    16    13    1
    14    12    13    1
    15    99    98    2
    16    21    19   ar
    17    21    23   ar
    18    13    14    1
    19    14    15    2
    20    19    22   ar
    21    98    97    1
    22     4     3    2
    23    23    25   ar
    24     3     2    1
    25     1     2    1
    26    97    96    1
    27    97   100    1
    28    22    24   ar
    29     2     5    1
    30   213   214    1
    31    25    24   ar
    32   215   214    1
    33   215   216    2
    34   100   101    1
    35   217   214    1
    36   217   218    1
    37   217   219    1
    38    92    91    2
    39     5     6    1
    40   218   220    1
    41   101   103   ar
    42   101   102   ar
    43   225   226    1
    44   225   222    1
    45     8     6   ar
    46     8    10   ar
    47   103   105   ar
    48   227   226    1
    49     6     7   ar
    50    91    90    1
    51   223   222    1
    52   223   224    2
    53   221   222    1
    54   226   228    1
    55   102   104   ar
    56    10    11   ar
    57    87    86    2
    58     7     9   ar
    59   105   104   ar
    60   204   203    1
    61    11     9   ar
    62    86    85    1
    63    86    89   am
    64    90    89    1
    65    90    93    1
    66    85    84    1
    67    85    88    1
    68    94    93    1
    69   114   115    1
    70   203   201   ar
    71   203   202   ar
    72   201   199   ar
    73    93    95    1
    74   120   119    1
    75   174   175    1
    76   119   118    1
    77   119   121    1
    78   118   115    1
    79   115   116    1
    80   202   200   ar
    81   199   198   ar
    82   175   178    1
    83   175   176    1
    84   196   195    2
    85   229   230    1
    86   178   179    1
    87   208   207    2
    88   116   117    2
    89    31    30    1
    90    31    33    1
    91    30    32    1
    92    30    27    1
    93    26    27    1
    94    80    79    2
    95   200   198   ar
    96   198   197    1
    97   176   177    2
    98   195   194    1
    99   195   205   am
   100   207   206    1
   101   180   179   ar
   102   180   182   ar
   103    27    28    1
   104   233   230    1
   105   233   234    1
   106    79    78    1
   107   230   231    1
   108   179   181   ar
   109   194   197    1
   110   194   193    1
   111    28    29    2
   112   122   123    1
   113   206   205    1
   114   206   209    1
   115   182   184   ar
   116   231   232    2
   117   236   234    1
   118    77    78    1
   119   126   123    1
   120   126   127    1
   121    78    81    1
   122   234   235    1
   123   181   183   ar
   124   123   124    1
   125   128   129    1
   126   128   127    1
   127   211   209    1
   128   209   210    1
   129   172   171    1
   130   169   168    2
   131    53    51    1
   132   184   183   ar
   133    82    81    1
   134   137   135    1
   135   210   212    1
   136    81    83    1
   137   130   124   am
   138   130   131    1
   139   124   125    2
   140    34    35    1
   141   135   134    1
   142   171   173    1
   143   171   170    1
   144   168   167    1
   145    51    50    1
   146   134   131    1
   147   134   136    1
   148   188   187    2
   149    50    52    1
   150    50    47    1
   151   131   132    1
   152   167   170    1
   153   167   166    1
   154    38    35    1
   155    38    39    1
   156    46    47    1
   157    46    36   am
   158    35    36    1
   159   132   133    2
   160   187   186    1
   161    47    48    1
   162   186   185    1
   163   186   189    1
   164    36    37    2
   165   192   190    1
   166    48    49    2
   167    39    41   ar
   168    39    40   ar
   169    41    43   ar
   170   148   147   ar
   171   148   146   ar
   172    75    76    1
   173    75    74    1
   174   191   189    1
   175   189   190    1
   176   147   145   ar
   177   146   144   ar
   178    40    42   ar
   179    73    74    1
   180    73    70    1
   181   163   162    2
   182    43    44   ar
   183    71    70    1
   184    71    72    2
   185   145   143   ar
   186   144   143   ar
   187    70    69    1
   188    42    44   ar
   189    44    45    1
   190   162   161    1
   191    68    66    1
   192    67    66    1
   193   143   142    1
   194   161   164    1
   195   161   160    1
   196    66    65    1
   197   164   165    1
   198   142   139    1
   199   157   155   ar
   200   157   159   ar
   201   155   154   ar
   202   159   158   ar
   203    64    63    2
   204    65    62    1
   205   154   156   ar
   206   154   153    1
   207   141   140    2
   208   158   156   ar
   209   153   150    1
   210   140   139    1
   211   139   138    1
   212    63    62    1
   213    62    61    1
   214    60    58    1
   215    59    58    1
   216   150   151    1
   217   150   149    1
   218   152   151    2
   219    58    55    1
   220    55    56    1
   221    55    54    1
   222    57    56    2
