@<TRIPOS>MOLECULE
tmp/2c9eA03.pdb
 189 177 0 0 0
SMALL
GASTEIGER

@<TRIPOS>ATOM
      1  N         10.8610    7.1380   24.5450 N.3    51  LEU51      -0.1231
      2  CA        10.4360    7.2750   23.1470 C.3    51  LEU51       0.1693
      3  C          8.8940    7.0210   22.9630 C.2    51  LEU51       0.2591
      4  O          8.1580    7.7450   22.2250 O.2    51  LEU51      -0.2718
      5  CB        11.2560    6.2890   22.3090 C.3    51  LEU51       0.0284
      6  CG        11.0030    6.2780   20.8050 C.3    51  LEU51       0.0019
      7  CD1       11.5400    7.5720   20.1870 C.3    51  LEU51       0.0001
      8  CD2       11.6790    5.0070   20.1870 C.3    51  LEU51       0.0001
      9  N          8.4200    5.9550   23.5930 N.am   52  LEU52      -0.1980
     10  CA         7.0200    5.5830   23.5080 C.3    52  LEU52       0.1596
     11  C          6.1720    6.6130   24.2550 C.2    52  LEU52       0.2287
     12  O          5.0890    7.0030   23.7700 O.2    52  LEU52      -0.2864
     13  CB         6.8430    4.2000   24.1220 C.3    52  LEU52       0.0297
     14  CG         7.5460    3.0300   23.3990 C.3    52  LEU52       0.0022
     15  CD1        7.2890    1.6570   24.1570 C.3    52  LEU52       0.0001
     16  CD2        7.0570    2.9630   21.9780 C.3    52  LEU52       0.0001
     17  N          6.8020    9.7910   24.6100 N.3    54  VAL54      -0.1231
     18  CA         6.6800   10.9820   23.7570 C.3    54  VAL54       0.1692
     19  C          5.6760   10.7340   22.6570 C.2    54  VAL54       0.2593
     20  O          4.8280   11.5890   22.3590 O.2    54  VAL54      -0.2718
     21  CB         8.0810   11.4430   23.1280 C.3    54  VAL54       0.0266
     22  CG1        7.9280   12.7260   22.3000 C.3    54  VAL54       0.0020
     23  CG2        9.0490   11.7370   24.2520 C.3    54  VAL54       0.0020
     24  N          5.7260    9.5340   22.0980 N.am   55  GLY55      -0.1942
     25  CA         4.8110    9.2000   21.0220 C.3    55  GLY55       0.2014
     26  C          3.3830    9.3020   21.5280 C.2    55  GLY55       0.2638
     27  O          2.4510    9.6180   20.7690 O.2    55  GLY55      -0.2714
     28  N          3.2180    9.0480   22.8260 N.am   56  LEU56      -0.1977
     29  CA         1.8940    9.0660   23.4370 C.3    56  LEU56       0.1596
     30  C          1.3980   10.4760   23.7300 C.2    56  LEU56       0.2287
     31  O          0.2720   10.6460   24.1460 O.2    56  LEU56      -0.2864
     32  CB         1.8870    8.2190   24.7210 C.3    56  LEU56       0.0297
     33  CG         1.6680    6.7130   24.4940 C.3    56  LEU56       0.0022
     34  CD1        1.7740    5.9230   25.8080 C.3    56  LEU56       0.0001
     35  CD2        0.3150    6.4880   23.9110 C.3    56  LEU56       0.0001
     36  N          1.6330   12.8890   21.2850 N.3    58  MET58      -0.1245
     37  CA         1.3270   13.4090   19.9540 C.3    58  MET58       0.1570
     38  C         -0.1230   13.2740   19.5140 C.2    58  MET58       0.2261
     39  O         -0.8770   12.4370   20.0260 O.2    58  MET58      -0.2867
     40  CB         2.2130   12.7060   18.9290 C.3    58  MET58       0.0387
     41  CG         3.7230   13.0230   19.1050 C.3    58  MET58       0.0595
     42  SD         4.8020   11.9280   18.1000 S.3    58  MET58      -0.1393
     43  CE         6.4190   12.6560   18.4050 C.3    58  MET58       0.0692
     44  N          0.2650   11.6520   13.6340 N.3    63  VAL63      -0.1245
     45  CA         1.1240   10.4520   13.7210 C.3    63  VAL63       0.1561
     46  C          0.7880    9.6260   12.4890 C.2    63  VAL63       0.2260
     47  O          1.6470    9.0950   11.7760 O.2    63  VAL63      -0.2867
     48  CB         0.8010    9.5810   15.0020 C.3    63  VAL63       0.0252
     49  CG1        1.3630    8.1630   14.8510 C.3    63  VAL63       0.0019
     50  CG2        1.4110   10.2190   16.2450 C.3    63  VAL63       0.0019
     51  N          3.2950    8.6210    9.3120 N.3    67  VAL67      -0.1245
     52  CA         3.5210    7.2340    8.9300 C.3    67  VAL67       0.1561
     53  C          3.0810    7.0700    7.4510 C.2    67  VAL67       0.2260
     54  O          3.7840    6.4450    6.6450 O.2    67  VAL67      -0.2867
     55  CB         2.7090    6.2570    9.8620 C.3    67  VAL67       0.0252
     56  CG1        2.7970    4.8320    9.3460 C.3    67  VAL67       0.0019
     57  CG2        3.3040    6.2500   11.2570 C.3    67  VAL67       0.0019
     58  N          3.9540   16.6760   13.0250 N.3   100  MET100     -0.1245
     59  CA         3.6880   15.7540   14.0910 C.3   100  MET100      0.1570
     60  C          4.4980   16.1580   15.3250 C.2   100  MET100      0.2261
     61  O          4.0180   16.0140   16.4640 O.2   100  MET100     -0.2867
     62  CB         4.0220   14.3310   13.6570 C.3   100  MET100      0.0387
     63  CG         3.8210   13.2670   14.7420 C.3   100  MET100      0.0595
     64  SD         4.6380   11.7030   14.1290 S.3   100  MET100     -0.1393
     65  CE         6.4030   11.9540   14.7160 C.3   100  MET100      0.0692
     66  N          9.8880   15.6000   24.2320 N.3   109  PHE109     -0.1227
     67  CA        10.4580   15.4000   22.9360 C.3   109  PHE109      0.1736
     68  C         11.9110   15.8070   22.8980 C.2   109  PHE109      0.2595
     69  O         12.7750   15.0510   22.4090 O.2   109  PHE109     -0.2718
     70  CB         9.7060   16.1680   21.8550 C.3   109  PHE109      0.0547
     71  CG        10.1170   15.7620   20.4770 C.ar  109  PHE109     -0.0202
     72  CD1       11.2660   16.3130   19.8820 C.ar  109  PHE109     -0.0042
     73  CD2        9.3920   14.7800   19.7980 C.ar  109  PHE109     -0.0042
     74  CE1       11.6930   15.8890   18.6180 C.ar  109  PHE109     -0.0003
     75  CE2        9.8000   14.3380   18.5310 C.ar  109  PHE109     -0.0003
     76  CZ        10.9580   14.8980   17.9360 C.ar  109  PHE109     -0.0000
     77  N         12.1910   17.0110   23.3850 N.am  110  ALA110     -0.1980
     78  CA        13.5800   17.5120   23.3800 C.3   110  ALA110      0.1597
     79  C         14.5000   16.6110   24.2080 C.2   110  ALA110      0.2287
     80  O         15.7200   16.5430   23.9710 O.2   110  ALA110     -0.2864
     81  CB        13.6370   18.9310   23.9250 C.3   110  ALA110      0.0319
     82  N         14.6600   13.4300   24.1450 N.3   112  LEU112     -0.1231
     83  CA        15.1460   12.2450   23.4470 C.3   112  LEU112      0.1693
     84  C         16.5450   12.3990   22.9020 C.2   112  LEU112      0.2591
     85  O         17.2210   11.3870   22.6150 O.2   112  LEU112     -0.2718
     86  CB        14.1850   11.8300   22.3300 C.3   112  LEU112      0.0284
     87  CG        13.0270   11.0600   22.9940 C.3   112  LEU112      0.0019
     88  CD1       11.7910   10.9500   22.0360 C.3   112  LEU112      0.0001
     89  CD2       13.5460    9.6370   23.3480 C.3   112  LEU112      0.0001
     90  N         17.0060   13.6500   22.7580 N.am  113  ARG113     -0.1980
     91  CA        18.3520   13.9260   22.2330 C.3   113  ARG113      0.1597
     92  C         19.4660   13.2840   23.0430 C.2   113  ARG113      0.2287
     93  O         20.4680   12.8530   22.5030 O.2   113  ARG113     -0.2864
     94  CB        18.6110   15.4420   22.2260 C.3   113  ARG113      0.0334
     95  CG        20.0110   15.8620   21.7310 C.3   113  ARG113      0.0492
     96  CD        20.0900   17.3880   21.6480 C.3   113  ARG113      0.2205
     97  NE        20.1270   17.9590   23.0060 N.pl3 113  ARG113     -0.0865
     98  CZ        21.2350   18.1150   23.7290 C.cat 113  ARG113      0.5346
     99  NH1       22.4410   17.7520   23.2120 N.pl3 113  ARG113      0.1354
    100  NH2       21.1390   18.6130   24.9840 N.pl3 113  ARG113      0.1354
    101  N         22.6840   21.3930    9.2930 N.3   139  TYR139     -0.1241
    102  CA        22.3660   21.5870   10.7060 C.3   139  TYR139      0.1605
    103  C         21.8430   22.9900   10.9630 C.2   139  TYR139      0.2264
    104  O         20.9170   23.1910   11.7550 O.2   139  TYR139     -0.2867
    105  CB        23.5880   21.3110   11.6110 C.3   139  TYR139      0.0534
    106  CG        23.2760   21.4880   13.0960 C.ar  139  TYR139     -0.0201
    107  CD1       22.3250   20.6780   13.7320 C.ar  139  TYR139     -0.0009
    108  CD2       23.8950   22.4820   13.8460 C.ar  139  TYR139     -0.0009
    109  CE1       22.0110   20.8600   15.0550 C.ar  139  TYR139      0.0417
    110  CE2       23.5810   22.6730   15.1820 C.ar  139  TYR139      0.0417
    111  CZ        22.6450   21.8550   15.7730 C.ar  139  TYR139      0.1957
    112  OH        22.3750   21.9900   17.1100 O.3   139  TYR139     -0.2866
    113  N         18.4060   22.7860   10.0040 N.3   142  PHE142     -0.1227
    114  CA        17.6480   21.9550   10.9800 C.3   142  PHE142      0.1736
    115  C         17.2430   22.8480   12.2000 C.2   142  PHE142      0.2595
    116  O         16.0910   22.8190   12.6730 O.2   142  PHE142     -0.2718
    117  CB        18.4990   20.7730   11.4520 C.3   142  PHE142      0.0547
    118  CG        17.8760   19.9800   12.5880 C.ar  142  PHE142     -0.0202
    119  CD1       16.7820   19.1620   12.3780 C.ar  142  PHE142     -0.0042
    120  CD2       18.4000   20.0480   13.8720 C.ar  142  PHE142     -0.0042
    121  CE1       16.2420   18.4260   13.4390 C.ar  142  PHE142     -0.0003
    122  CE2       17.8490   19.3150   14.9030 C.ar  142  PHE142     -0.0003
    123  CZ        16.7920   18.5180   14.6830 C.ar  142  PHE142     -0.0000
    124  N         18.1840   23.6640   12.6890 N.am  143  LYS143     -0.1980
    125  CA        17.8730   24.5420   13.7880 C.3   143  LYS143      0.1596
    126  C         16.7200   25.4730   13.4410 C.2   143  LYS143      0.2287
    127  O         15.7930   25.6520   14.2390 O.2   143  LYS143     -0.2864
    128  CB        19.0940   25.3580   14.1650 C.3   143  LYS143      0.0298
    129  CG        20.2520   24.5060   14.7070 C.3   143  LYS143      0.0038
    130  CD        21.1830   25.3490   15.5270 C.3   143  LYS143      0.0206
    131  CE        22.1120   26.1790   14.6840 C.3   143  LYS143      0.1093
    132  NZ        23.2450   26.7160   15.5130 N.3   143  LYS143     -0.1314
    133  N         13.5600   23.6310   13.7660 N.3   146  THR146     -0.1218
    134  CA        13.1240   23.3420   15.1220 C.3   146  THR146      0.1862
    135  C         12.4430   24.5670   15.7180 C.2   146  THR146      0.2287
    136  O         11.4830   24.4310   16.4920 O.2   146  THR146     -0.2866
    137  CB        14.2900   22.8480   16.0550 C.3   146  THR146      0.1770
    138  OG1       15.2520   23.8830   16.2620 O.3   146  THR146     -0.2211
    139  CG2       14.9860   21.6140   15.4620 C.3   146  THR146      0.0375
    140  N          8.7880   24.7310   17.1970 N.3   150  ARG150     -0.1245
    141  CA         8.6030   25.1290   18.5820 C.3   150  ARG150      0.1563
    142  C          7.5650   26.2590   18.5830 C.2   150  ARG150      0.2260
    143  O          6.5750   26.1770   19.2850 O.2   150  ARG150     -0.2867
    144  CB         9.9180   25.6550   19.1600 C.3   150  ARG150      0.0307
    145  CG         9.8570   26.0510   20.6630 C.3   150  ARG150      0.0489
    146  CD        11.0150   26.9960   21.0230 C.3   150  ARG150      0.2205
    147  NE        10.9350   28.1500   20.1280 N.pl3 150  ARG150     -0.0865
    148  CZ        11.9700   28.6830   19.4900 C.cat 150  ARG150      0.5346
    149  NH1       13.1830   28.1690   19.6820 N.pl3 150  ARG150      0.1354
    150  NH2       11.7720   29.6530   18.5830 N.pl3 150  ARG150      0.1354
    151  N         -3.7250   11.4730   23.0250 N.3   160  PRO160     -0.2116
    152  CA        -4.9470   10.6650   23.0970 C.3   160  PRO160      0.1372
    153  C         -5.2510   10.2230   24.5360 C.2   160  PRO160      0.2244
    154  O         -4.3470   10.1130   25.3820 O.2   160  PRO160     -0.2868
    155  CB        -4.6330    9.4860   22.1770 C.3   160  PRO160      0.0268
    156  CG        -3.1720    9.3420   22.3420 C.3   160  PRO160      0.0207
    157  CD        -2.6680   10.7550   22.2970 C.3   160  PRO160      0.0892
    158  N         -6.3510    3.0790   15.8230 N.3   225  GLN225     -0.1245
    159  CA        -5.4110    3.8720   16.5730 C.3   225  GLN225      0.1566
    160  C         -5.5570    3.8570   18.1080 C.2   225  GLN225      0.2260
    161  O         -4.5480    3.9830   18.8010 O.2   225  GLN225     -0.2867
    162  CB        -5.3770    5.3210   16.0320 C.3   225  GLN225      0.0367
    163  CG        -4.0590    6.0940   16.3950 C.3   225  GLN225      0.0905
    164  CD        -2.8120    5.5330   15.6930 C.2   225  GLN225      0.2608
    165  OE1       -2.9400    4.8030   14.7050 O.2   225  GLN225     -0.2717
    166  NE2       -1.6010    5.8910   16.1890 N.am  225  GLN225     -0.0878
    167  N         -3.7820    0.9280   19.2490 N.3   228  ILE228     -0.1231
    168  CA        -2.3670    1.1680   19.0900 C.3   228  ILE228      0.1692
    169  C         -1.9210    1.8740   20.3680 C.2   228  ILE228      0.2592
    170  O         -0.9480    1.4590   21.0090 O.2   228  ILE228     -0.2718
    171  CB        -2.0880    2.0770   17.8660 C.3   228  ILE228      0.0266
    172  CG1       -2.2330    1.2560   16.5930 C.3   228  ILE228      0.0019
    173  CG2       -0.6700    2.7270   17.9660 C.3   228  ILE228      0.0020
    174  CD1       -1.9980    2.0450   15.3230 C.3   228  ILE228      0.0001
    175  N         -2.6520    2.9150   20.7620 N.am  229  ASN229     -0.1974
    176  CA        -2.3040    3.6590   21.9520 C.3   229  ASN229      0.1688
    177  C         -2.3330    2.7940   23.1590 C.2   229  ASN229      0.2292
    178  O         -1.4700    2.9200   24.0090 O.2   229  ASN229     -0.2864
    179  CB        -3.2400    4.8370   22.1720 C.3   229  ASN229      0.1181
    180  CG        -3.2070    5.7820   21.0350 C.2   229  ASN229      0.2629
    181  OD1       -2.1710    5.9350   20.3880 O.2   229  ASN229     -0.2716
    182  ND2       -4.3270    6.4290   20.7610 N.am  229  ASN229     -0.0877
    183  N          0.8680    0.3820   23.0560 N.3   232  VAL232     -0.1245
    184  CA         2.0560    1.1730   23.2960 C.3   232  VAL232      0.1561
    185  C          2.1440    1.4900   24.8280 C.2   232  VAL232      0.2260
    186  O          3.1840    1.3260   25.4640 O.2   232  VAL232     -0.2867
    187  CB         2.0040    2.4940   22.4590 C.3   232  VAL232      0.0252
    188  CG1        3.1160    3.4780   22.8890 C.3   232  VAL232      0.0019
    189  CG2        2.1870    2.1960   20.9580 C.3   232  VAL232      0.0019
@<TRIPOS>BOND
     1    54    53    2
     2    53    52    1
     3    52    51    1
     4    52    55    1
     5   101   102    1
     6    56    55    1
     7    55    57    1
     8   113   114    1
     9   102   103    1
    10   102   105    1
    11   103   104    2
    12   114   117    1
    13   114   115    1
    14   117   118    1
    15   105   106    1
    16    47    46    2
    17   115   116    2
    18   115   124   am
    19   119   118   ar
    20   119   121   ar
    21    46    45    1
    22   118   120   ar
    23   124   125    1
    24    58    59    1
    25   106   107   ar
    26   106   108   ar
    27   121   123   ar
    28   126   125    1
    29   126   127    2
    30    44    45    1
    31    62    59    1
    32    62    63    1
    33    45    48    1
    34   107   109   ar
    35   133   134    1
    36   125   128    1
    37   108   110   ar
    38   120   122   ar
    39    59    60    1
    40    64    65    1
    41    64    63    1
    42   128   129    1
    43   123   122   ar
    44   131   132    1
    45   131   130    1
    46   165   164    2
    47   129   130    1
    48    49    48    1
    49    48    50    1
    50   109   111   ar
    51   134   135    1
    52   134   137    1
    53   110   111   ar
    54   174   172    1
    55    60    61    2
    56   139   137    1
    57   164   166   am
    58   164   163    1
    59   135   136    2
    60   111   112    1
    61   158   159    1
    62   162   163    1
    63   162   159    1
    64   137   138    1
    65   159   160    1
    66   172   171    1
    67   140   141    1
    68   171   173    1
    69   171   168    1
    70    76    75   ar
    71    76    74   ar
    72    42    43    1
    73    42    41    1
    74   160   161    2
    75    75    73   ar
    76   141   142    1
    77   141   144    1
    78   150   148    1
    79   142   143    2
    80    74    72   ar
    81    40    41    1
    82    40    37    1
    83   168   167    1
    84   168   169    1
    85   144   145    1
    86   148   149    1
    87   148   147    2
    88    38    37    1
    89    38    39    2
    90    73    71   ar
    91    72    71   ar
    92    37    36    1
    93   147   146    1
    94     7     6    1
    95     8     6    1
    96   169   175   am
    97   169   170    2
    98   181   180    2
    99    71    70    1
   100   145   146    1
   101   182   180   am
   102   175   176    1
   103    27    26    2
   104     6     5    1
   105   189   187    1
   106    25    26    1
   107    25    24    1
   108   180   179    1
   109    26    28   am
   110    96    95    1
   111    96    97    1
   112    95    94    1
   113    70    67    1
   114   176   179    1
   115   176   177    1
   116    16    14    1
   117    88    87    1
   118    24    19   am
   119   155   156    1
   120   155   152    1
   121     4     3    2
   122    94    91    1
   123    91    90    1
   124    91    92    1
   125   157   156    1
   126   157   151    1
   127    22    21    1
   128     5     2    1
   129    86    87    1
   130    86    83    1
   131    20    19    2
   132    69    68    2
   133   187   188    1
   134   187   184    1
   135    93    92    2
   136    85    84    2
   137    19    18    1
   138    90    84   am
   139    28    29    1
   140    68    67    1
   141    68    77   am
   142    84    83    1
   143    67    66    1
   144     3     2    1
   145     3     9   am
   146    87    89    1
   147    97    98    2
   148   151   152    1
   149   183   184    1
   150   152   153    1
   151    21    18    1
   152    21    23    1
   153     2     1    1
   154   177   178    2
   155    99    98    1
   156   184   185    1
   157    78    77    1
   158    78    81    1
   159    78    79    1
   160    14    13    1
   161    14    15    1
   162    29    30    1
   163    29    32    1
   164    83    82    1
   165    10     9    1
   166    10    13    1
   167    10    11    1
   168    98   100    1
   169    30    31    2
   170    18    17    1
   171    12    11    2
   172    35    33    1
   173    80    79    2
   174    33    32    1
   175    33    34    1
   176   153   154    2
   177   185   186    2
