@<TRIPOS>MOLECULE
tmp/2c9eA02.pdb
 201 190 0 0 0
SMALL
GASTEIGER

@<TRIPOS>ATOM
      1  N         22.6530   15.1340    0.8980 N.3    17  ILE17      -0.1245
      2  CA        23.4050   14.3200    1.8630 C.3    17  ILE17       0.1561
      3  C         22.7450   12.9400    1.9180 C.2    17  ILE17       0.2260
      4  O         23.4250   11.9070    1.9510 O.2    17  ILE17      -0.2867
      5  CB        23.3680   14.9710    3.2760 C.3    17  ILE17       0.0252
      6  CG1       24.0690   16.3430    3.2030 C.3    17  ILE17       0.0019
      7  CG2       23.9490   13.9730    4.3360 C.3    17  ILE17       0.0019
      8  CD1       24.0050   17.2040    4.4990 C.3    17  ILE17       0.0001
      9  N         23.9370    8.5930    1.3770 N.3    21  PHE21      -0.1241
     10  CA        23.8960    7.7330    2.5510 C.3    21  PHE21       0.1605
     11  C         23.4920    6.3010    2.2710 C.2    21  PHE21       0.2264
     12  O         22.5810    6.0200    1.4620 O.2    21  PHE21      -0.2867
     13  CB        22.9730    8.3240    3.6300 C.3    21  PHE21       0.0534
     14  CG        23.2100    7.7360    5.0020 C.ar   21  PHE21      -0.0203
     15  CD1       24.2330    8.2380    5.8260 C.ar   21  PHE21      -0.0042
     16  CD2       22.4580    6.6430    5.4400 C.ar   21  PHE21      -0.0042
     17  CE1       24.5070    7.6620    7.0520 C.ar   21  PHE21      -0.0003
     18  CE2       22.7220    6.0520    6.6730 C.ar   21  PHE21      -0.0003
     19  CZ        23.7470    6.5600    7.4810 C.ar   21  PHE21      -0.0000
     20  N         21.5290    3.8990    3.1150 N.3    23  TRP23      -0.1241
     21  CA        20.2940    3.5140    3.7690 C.3    23  TRP23       0.1605
     22  C         20.1000    2.0270    3.9270 C.2    23  TRP23       0.2264
     23  O         19.5930    1.5800    4.9510 O.2    23  TRP23      -0.2867
     24  CB        19.0940    4.0790    3.0200 C.3    23  TRP23       0.0550
     25  CG        19.1600    5.5470    2.9680 C.ar   23  TRP23       0.0003
     26  CD1       19.5400    6.3080    1.9030 C.ar   23  TRP23       0.0946
     27  CD2       18.9500    6.4530    4.0570 C.ar   23  TRP23       0.0152
     28  NE1       19.5840    7.6380    2.2510 N.ar   23  TRP23      -0.2442
     29  CE2       19.2310    7.7550    3.5750 C.ar   23  TRP23       0.0810
     30  CE3       18.5520    6.2970    5.3940 C.ar   23  TRP23       0.0012
     31  CZ2       19.1210    8.8940    4.3860 C.ar   23  TRP23       0.0191
     32  CZ3       18.4380    7.4180    6.1970 C.ar   23  TRP23       0.0001
     33  CH2       18.7220    8.7100    5.6820 C.ar   23  TRP23       0.0015
     34  N         22.5610   -0.5360    3.8220 N.3    25  GLY25      -0.1225
     35  CA        23.6230   -1.3850    4.3270 C.3    25  GLY25       0.1811
     36  C         23.8200   -1.3930    5.8320 C.2    25  GLY25       0.2280
     37  O         22.9660   -0.8850    6.6040 O.2    25  GLY25      -0.2866
     38  N         25.2370    0.3400    8.0410 N.3    27  SER27      -0.1217
     39  CA        25.8740    1.6070    8.3300 C.3    27  SER27       0.1889
     40  C         26.2780    1.7360    9.8140 C.2    27  SER27       0.2288
     41  O         26.2710    0.7850   10.5780 O.2    27  SER27      -0.2866
     42  CB        24.9090    2.7440    7.9770 C.3    27  SER27       0.2089
     43  OG        23.7480    2.6400    8.7920 O.3    27  SER27      -0.2183
     44  N         24.5890    3.3470   11.7540 N.3    29  ILE29      -0.1231
     45  CA        23.3120    3.2670   12.4550 C.3    29  ILE29       0.1692
     46  C         22.9500    1.8090   12.7430 C.2    29  ILE29       0.2591
     47  O         22.6050    1.4750   13.8690 O.2    29  ILE29      -0.2718
     48  CB        22.2010    3.9160   11.6200 C.3    29  ILE29       0.0266
     49  CG1       22.4550    5.4080   11.5480 C.3    29  ILE29       0.0019
     50  CG2       20.8340    3.6730   12.2110 C.3    29  ILE29       0.0020
     51  CD1       21.8610    6.1590   12.6920 C.3    29  ILE29       0.0001
     52  N         23.0510    0.9380   11.7350 N.am   30  ALA30      -0.1980
     53  CA        22.7120   -0.4770   11.9110 C.3    30  ALA30       0.1597
     54  C         23.5210   -1.0530   13.0730 C.2    30  ALA30       0.2287
     55  O         23.0050   -1.7950   13.9020 O.2    30  ALA30      -0.2864
     56  CB        22.9960   -1.2680   10.6030 C.3    30  ALA30       0.0319
     57  N         22.4490    0.5290   16.6240 N.3    33  ILE33      -0.1245
     58  CA        21.2300   -0.0610   17.2000 C.3    33  ILE33       0.1561
     59  C         21.5030   -1.4770   17.7130 C.2    33  ILE33       0.2260
     60  O         21.1020   -1.8290   18.8230 O.2    33  ILE33      -0.2867
     61  CB        20.0750   -0.1040   16.2030 C.3    33  ILE33       0.0252
     62  CG1       19.7480    1.3030   15.7270 C.3    33  ILE33       0.0019
     63  CG2       18.8660   -0.7530   16.8600 C.3    33  ILE33       0.0019
     64  CD1       18.8300    1.3890   14.5350 C.3    33  ILE33       0.0001
     65  N         17.6500    2.8100   -2.3000 N.3    83  LEU83      -0.1245
     66  CA        16.4780    3.0420   -1.4240 C.3    83  LEU83       0.1561
     67  C         16.2720    4.5420   -1.2130 C.2    83  LEU83       0.2260
     68  O         15.8970    4.9900   -0.1400 O.2    83  LEU83      -0.2867
     69  CB        16.6800    2.3630   -0.0630 C.3    83  LEU83       0.0270
     70  CG        16.8090    0.8350   -0.1620 C.3    83  LEU83       0.0019
     71  CD1       17.0740    0.2640    1.2060 C.3    83  LEU83       0.0001
     72  CD2       15.5320    0.2310   -0.7540 C.3    83  LEU83       0.0001
     73  N         26.8260   10.0470   16.2890 N.3   123  GLN123     -0.1231
     74  CA        26.7330   11.2730   15.5300 C.3   123  GLN123      0.1698
     75  C         28.1120   11.6480   14.9480 C.2   123  GLN123      0.2592
     76  O         28.2230   12.0460   13.7730 O.2   123  GLN123     -0.2718
     77  CB        26.1400   12.3840   16.3950 C.3   123  GLN123      0.0381
     78  CG        25.9170   13.6200   15.6120 C.3   123  GLN123      0.0905
     79  CD        24.9020   14.4970   16.2500 C.2   123  GLN123      0.2608
     80  OE1       23.8410   14.0270   16.6740 O.2   123  GLN123     -0.2717
     81  NE2       25.2000   15.7980   16.3250 N.am  123  GLN123     -0.0878
     82  N         29.1700   11.5090   15.7500 N.am  124  GLY124     -0.1957
     83  CA        30.4850   11.8020   15.2080 C.3   124  GLY124      0.1869
     84  C         30.8120   10.8980   14.0060 C.2   124  GLY124      0.2309
     85  O         31.3870   11.3610   13.0370 O.2   124  GLY124     -0.2863
     86  N         28.6790    9.6360   11.9010 N.3   126  LEU126     -0.1231
     87  CA        27.8270   10.0050   10.7730 C.3   126  LEU126      0.1693
     88  C         28.4170   11.2690   10.0920 C.2   126  LEU126      0.2592
     89  O         28.5030   11.3850    8.8420 O.2   126  LEU126     -0.2718
     90  CB        26.3720   10.2080   11.2570 C.3   126  LEU126      0.0284
     91  CG        25.5760    8.9390   11.7120 C.3   126  LEU126      0.0019
     92  CD1       24.2890    9.2990   12.4370 C.3   126  LEU126      0.0001
     93  CD2       25.2050    8.0770   10.5160 C.3   126  LEU126      0.0001
     94  N         28.8460   12.2080   10.9170 N.am  127  PHE127     -0.1976
     95  CA        29.4590   13.4220   10.4000 C.3   127  PHE127      0.1639
     96  C         30.7240   13.0460    9.5970 C.2   127  PHE127      0.2290
     97  O         30.9160   13.5220    8.4740 O.2   127  PHE127     -0.2864
     98  CB        29.8460   14.3460   11.5500 C.3   127  PHE127      0.0560
     99  CG        30.4740   15.6460   11.1130 C.ar  127  PHE127     -0.0200
    100  CD1       29.8200   16.4900   10.2380 C.ar  127  PHE127     -0.0042
    101  CD2       31.6670   16.0930   11.7020 C.ar  127  PHE127     -0.0042
    102  CE1       30.3340   17.7860    9.9620 C.ar  127  PHE127     -0.0003
    103  CE2       32.1840   17.3720   11.4280 C.ar  127  PHE127     -0.0003
    104  CZ        31.5060   18.2160   10.5570 C.ar  127  PHE127     -0.0000
    105  N         30.1140   12.3420    6.1130 N.3   130  ASN130     -0.1240
    106  CA        29.4760   13.3440    5.2720 C.3   130  ASN130      0.1653
    107  C         30.5020   14.4280    4.8960 C.2   130  ASN130      0.2266
    108  O         31.6500   14.4680    5.4110 O.2   130  ASN130     -0.2867
    109  CB        28.3050   14.0630    5.9800 C.3   130  ASN130      0.1155
    110  CG        27.1760   13.1240    6.4070 C.2   130  ASN130      0.2627
    111  OD1       26.9040   12.0930    5.7710 O.2   130  ASN130     -0.2716
    112  ND2       26.4960   13.4970    7.4850 N.am  130  ASN130     -0.0877
    113  N         27.1060   19.0880    5.8260 N.3   135  ALA135     -0.1231
    114  CA        26.3560   18.7830    7.0590 C.3   135  ALA135      0.1694
    115  C         26.1730   20.0740    7.9330 C.2   135  ALA135      0.2591
    116  O         25.1330   20.2780    8.5400 O.2   135  ALA135     -0.2718
    117  CB        27.1150   17.6790    7.8780 C.3   135  ALA135      0.0304
    118  N         27.1780   20.9370    7.9870 N.am  136  GLU136     -0.1979
    119  CA        27.0460   22.1430    8.8110 C.3   136  GLU136      0.1602
    120  C         25.9100   23.0200    8.3440 C.2   136  GLU136      0.2287
    121  O         25.1210   23.5180    9.1550 O.2   136  GLU136     -0.2864
    122  CB        28.3590   22.9030    8.8440 C.3   136  GLU136      0.0415
    123  CG        29.3570   22.1900    9.7510 C.3   136  GLU136      0.1163
    124  CD        30.8160   22.5190    9.4280 C.2   136  GLU136      0.3649
    125  OE1       31.0730   23.4890    8.6400 O.co2 136  GLU136     -0.2457
    126  OE2       31.6910   21.7890    9.9610 O.co2 136  GLU136     -0.2457
    127  N         22.6840   21.3930    9.2930 N.3   139  TYR139     -0.1241
    128  CA        22.3660   21.5870   10.7060 C.3   139  TYR139      0.1605
    129  C         21.8430   22.9900   10.9630 C.2   139  TYR139      0.2264
    130  O         20.9170   23.1910   11.7550 O.2   139  TYR139     -0.2867
    131  CB        23.5880   21.3110   11.6110 C.3   139  TYR139      0.0534
    132  CG        23.2760   21.4880   13.0960 C.ar  139  TYR139     -0.0201
    133  CD1       22.3250   20.6780   13.7320 C.ar  139  TYR139     -0.0009
    134  CD2       23.8950   22.4820   13.8460 C.ar  139  TYR139     -0.0009
    135  CE1       22.0110   20.8600   15.0550 C.ar  139  TYR139      0.0417
    136  CE2       23.5810   22.6730   15.1820 C.ar  139  TYR139      0.0417
    137  CZ        22.6450   21.8550   15.7730 C.ar  139  TYR139      0.1957
    138  OH        22.3750   21.9900   17.1100 O.3   139  TYR139     -0.2866
    139  N         20.7250   -9.7440   13.7020 N.3   197  TYR197     -0.1227
    140  CA        19.7530   -9.5180   12.6210 C.3   197  TYR197      0.1736
    141  C         19.6990   -8.0250   12.2550 C.2   197  TYR197      0.2595
    142  O         19.8300   -7.6360   11.0810 O.2   197  TYR197     -0.2718
    143  CB        18.3670  -10.0000   13.0620 C.3   197  TYR197      0.0548
    144  CG        17.3330   -9.9010   11.9660 C.ar  197  TYR197     -0.0200
    145  CD1       17.3070  -10.8210   10.9330 C.ar  197  TYR197     -0.0009
    146  CD2       16.4470   -8.8100   11.9020 C.ar  197  TYR197     -0.0009
    147  CE1       16.4420  -10.6690    9.8380 C.ar  197  TYR197      0.0417
    148  CE2       15.5590   -8.6490   10.8070 C.ar  197  TYR197      0.0417
    149  CZ        15.5710   -9.5860    9.7850 C.ar  197  TYR197      0.1957
    150  OH        14.6920   -9.4540    8.7260 O.3   197  TYR197     -0.2866
    151  N         19.5460   -7.1740   13.2680 N.am  198  ILE198     -0.1980
    152  CA        19.4940   -5.7460   13.0450 C.3   198  ILE198      0.1595
    153  C         20.7760   -5.2260   12.3750 C.2   198  ILE198      0.2287
    154  O         20.7320   -4.3890   11.4680 O.2   198  ILE198     -0.2864
    155  CB        19.2750   -5.0190   14.3890 C.3   198  ILE198      0.0276
    156  CG1       17.8540   -5.3330   14.9190 C.3   198  ILE198      0.0022
    157  CG2       19.5870   -3.5320   14.2450 C.3   198  ILE198      0.0022
    158  CD1       17.5970   -4.7980   16.3380 C.3   198  ILE198      0.0001
    159  N         20.9640   -7.7940    8.6120 N.3   201  ALA201     -0.1231
    160  CA        19.8610   -8.2090    7.7600 C.3   201  ALA201      0.1694
    161  C         19.6520   -7.3960    6.5050 C.2   201  ALA201      0.2592
    162  O         19.6340   -7.9170    5.3950 O.2   201  ALA201     -0.2718
    163  CB        18.5700   -8.2470    8.5630 C.3   201  ALA201      0.0304
    164  N         19.4790   -6.1040    6.6710 N.am  202  SER202     -0.1952
    165  CA        19.2350   -5.2590    5.5210 C.3   202  SER202      0.1924
    166  C         20.3180   -5.3280    4.4590 C.2   202  SER202      0.2314
    167  O         20.0260   -5.4500    3.2670 O.2   202  SER202     -0.2863
    168  CB        19.0700   -3.8020    5.9720 C.3   202  SER202      0.2116
    169  OG        18.8220   -2.9310    4.8860 O.3   202  SER202     -0.2180
    170  N         13.9840   -5.6410    2.5050 N.3   209  MET209     -0.1230
    171  CA        13.8330   -5.0390    3.8510 C.3   209  MET209      0.1702
    172  C         12.9620   -3.7510    3.7880 C.2   209  MET209      0.2592
    173  O         12.0390   -3.5380    4.6290 O.2   209  MET209     -0.2718
    174  CB        15.2250   -4.7440    4.4200 C.3   209  MET209      0.0401
    175  CG        15.2510   -3.9910    5.7630 C.3   209  MET209      0.0596
    176  SD        14.4820   -4.8300    7.1460 S.3   209  MET209     -0.1393
    177  CE        15.6560   -6.0990    7.6070 C.3   209  MET209      0.0692
    178  N         13.2470   -2.8810    2.7930 N.am  210  ALA210     -0.1980
    179  CA        12.4360   -1.6470    2.6470 C.3   210  ALA210      0.1597
    180  C         10.9670   -2.0600    2.4050 C.2   210  ALA210      0.2287
    181  O         10.0150   -1.4250    2.8960 O.2   210  ALA210     -0.2864
    182  CB        12.9500   -0.7690    1.4460 C.3   210  ALA210      0.0319
    183  N          9.4520   -3.1260    5.6160 N.3   213  ILE213     -0.1245
    184  CA         9.1090   -1.9780    6.4700 C.3   213  ILE213      0.1561
    185  C          7.8390   -1.3320    5.9590 C.2   213  ILE213      0.2260
    186  O          6.9540   -0.9420    6.7340 O.2   213  ILE213     -0.2867
    187  CB        10.2000   -0.8990    6.4610 C.3   213  ILE213      0.0252
    188  CG1       11.5090   -1.4680    7.0640 C.3   213  ILE213      0.0019
    189  CG2        9.6850    0.3660    7.1860 C.3   213  ILE213      0.0019
    190  CD1       11.3630   -1.9820    8.5230 C.3   213  ILE213      0.0001
    191  N         10.0080   -9.9090    5.6240 N.3   281  PHE281     -0.1241
    192  CA        11.3900   -9.4840    5.8560 C.3   281  PHE281      0.1605
    193  C         12.4500  -10.4900    5.3990 C.2   281  PHE281      0.2264
    194  O         12.2400  -11.6900    5.4220 O.2   281  PHE281     -0.2867
    195  CB        11.5870   -9.1630    7.3510 C.3   281  PHE281      0.0534
    196  CG        10.8740   -7.9380    7.7760 C.ar  281  PHE281     -0.0203
    197  CD1        9.5010   -7.9700    8.0560 C.ar  281  PHE281     -0.0042
    198  CD2       11.5250   -6.7300    7.7680 C.ar  281  PHE281     -0.0042
    199  CE1        8.8010   -6.7900    8.3120 C.ar  281  PHE281     -0.0003
    200  CE2       10.8420   -5.5460    8.0230 C.ar  281  PHE281     -0.0003
    201  CZ         9.4660   -5.5750    8.2950 C.ar  281  PHE281     -0.0000
@<TRIPOS>BOND
     1    65    66    1
     2    66    67    1
     3    66    69    1
     4    67    68    2
     5    72    70    1
     6    70    69    1
     7    70    71    1
     8     1     2    1
     9     9    10    1
    10   182   179    1
    11    12    11    2
    12     2     3    1
    13     2     5    1
    14    26    28   ar
    15    26    25   ar
    16     3     4    2
    17    28    29   ar
    18    11    10    1
    19   180   179    1
    20   180   181    2
    21   170   171    1
    22    10    13    1
    23   179   178    1
    24   178   172   am
    25    25    24    1
    26    25    27   ar
    27    24    21    1
    28    20    21    1
    29     6     5    1
    30     6     8    1
    31   167   166    2
    32     5     7    1
    33    29    27   ar
    34    29    31   ar
    35    13    14    1
    36    21    22    1
    37   172   171    1
    38   172   173    2
    39    34    35    1
    40   171   174    1
    41    22    23    2
    42    27    30   ar
    43    35    36    1
    44    31    33   ar
    45   174   175    1
    46   166   165    1
    47   169   168    1
    48   107   106    1
    49   107   108    2
    50    14    16   ar
    51    14    15   ar
    52   106   109    1
    53   106   105    1
    54    30    32   ar
    55   162   161    2
    56   193   194    2
    57   193   192    1
    58    16    18   ar
    59   165   168    1
    60   165   164    1
    61   183   184    1
    62   191   192    1
    63    33    32   ar
    64   175   176    1
    65   111   110    2
    66   113   114    1
    67    15    17   ar
    68    36    37    2
    69   192   195    1
    70   185   184    1
    71   185   186    2
    72   109   110    1
    73   110   112   am
    74   187   184    1
    75   187   188    1
    76   187   189    1
    77   161   164   am
    78   161   160    1
    79    18    19   ar
    80    17    19   ar
    81   114   117    1
    82   114   115    1
    83   188   190    1
    84   176   177    1
    85   195   196    1
    86   160   163    1
    87   160   159    1
    88   198   196   ar
    89   198   200   ar
    90   196   197   ar
    91   115   118   am
    92   115   116    2
    93    42    39    1
    94    42    43    1
    95   118   119    1
    96   200   201   ar
    97    38    39    1
    98   197   199   ar
    99   201   199   ar
   100    39    40    1
   101   120   119    1
   102   120   121    2
   103    97    96    2
   104   125   124   ar
   105   150   149    1
   106   119   122    1
   107    89    88    2
   108   122   123    1
   109   127   128    1
   110   124   123    1
   111   124   126   ar
   112    96    95    1
   113   149   147   ar
   114   149   148   ar
   115    40    41    2
   116   147   145   ar
   117   102   100   ar
   118   102   104   ar
   119    88    87    1
   120    88    94   am
   121   100    99   ar
   122    95    94    1
   123    95    98    1
   124    93    91    1
   125   104   103   ar
   126    56    53    1
   127   128   129    1
   128   128   131    1
   129    87    90    1
   130    87    86    1
   131   148   146   ar
   132   145   144   ar
   133   129   130    2
   134   142   141    2
   135    99    98    1
   136    99   101   ar
   137    90    91    1
   138   103   101   ar
   139   154   153    2
   140    49    48    1
   141    49    51    1
   142   131   132    1
   143    48    50    1
   144    48    45    1
   145    91    92    1
   146    52    53    1
   147    52    46   am
   148    44    45    1
   149   146   144   ar
   150    53    54    1
   151   144   143    1
   152   141   140    1
   153   141   151   am
   154   153   152    1
   155    45    46    1
   156   140   143    1
   157   140   139    1
   158    46    47    2
   159    85    84    2
   160   152   151    1
   161   152   155    1
   162    54    55    2
   163   132   133   ar
   164   132   134   ar
   165   133   135   ar
   166    76    75    2
   167   134   136   ar
   168    84    83    1
   169   157   155    1
   170   155   156    1
   171    64    62    1
   172   156   158    1
   173    75    74    1
   174    75    82   am
   175   135   137   ar
   176   136   137   ar
   177    83    82    1
   178    74    73    1
   179    74    77    1
   180    78    79    1
   181    78    77    1
   182    62    61    1
   183   137   138    1
   184    61    63    1
   185    61    58    1
   186    79    81   am
   187    79    80    2
   188    57    58    1
   189    58    59    1
   190    59    60    2
