@<TRIPOS>MOLECULE
tmp/2c9eA06.pdb
 203 193 0 0 0
SMALL
GASTEIGER

@<TRIPOS>ATOM
      1  N         25.0890    0.7230   15.4690 N.3    32  TYR32      -0.1227
      2  CA        24.7830    1.3530   16.7490 C.3    32  TYR32       0.1736
      3  C         23.5250    0.7230   17.3900 C.2    32  TYR32       0.2595
      4  O         23.5410    0.4120   18.5640 O.2    32  TYR32      -0.2718
      5  CB        24.5620    2.8460   16.5820 C.3    32  TYR32       0.0548
      6  CG        23.9040    3.4750   17.7630 C.ar   32  TYR32      -0.0200
      7  CD1       24.6630    3.8930   18.8610 C.ar   32  TYR32      -0.0009
      8  CD2       22.5030    3.6090   17.8250 C.ar   32  TYR32      -0.0009
      9  CE1       24.0540    4.4240   20.0030 C.ar   32  TYR32       0.0417
     10  CE2       21.8700    4.1410   18.9860 C.ar   32  TYR32       0.0417
     11  CZ        22.6510    4.5510   20.0700 C.ar   32  TYR32       0.1957
     12  OH        22.0680    5.1070   21.2130 O.3    32  TYR32      -0.2866
     13  N         22.4490    0.5290   16.6240 N.am   33  ILE33      -0.1966
     14  CA        21.2300   -0.0610   17.2000 C.3    33  ILE33       0.1727
     15  C         21.5030   -1.4770   17.7130 C.2    33  ILE33       0.2616
     16  O         21.1020   -1.8290   18.8230 O.2    33  ILE33      -0.2715
     17  CB        20.0750   -0.1040   16.2030 C.3    33  ILE33       0.0290
     18  CG1       19.7480    1.3030   15.7270 C.3    33  ILE33       0.0022
     19  CG2       18.8660   -0.7530   16.8600 C.3    33  ILE33       0.0023
     20  CD1       18.8300    1.3890   14.5350 C.3    33  ILE33       0.0001
     21  N         22.2230   -2.2590   16.9050 N.am   34  ALA34      -0.1977
     22  CA        22.6110   -3.6170   17.2380 C.3    34  ALA34       0.1597
     23  C         23.3630   -3.7050   18.5450 C.2    34  ALA34       0.2287
     24  O         23.1120   -4.6350   19.3200 O.2    34  ALA34      -0.2864
     25  CB        23.4720   -4.1800   16.1620 C.3    34  ALA34       0.0319
     26  N         23.7460   -0.9570   20.8690 N.3    36  ALA36      -0.1231
     27  CA        23.4580    0.0720   21.8620 C.3    36  ALA36       0.1694
     28  C         23.2430   -0.3820   23.3210 C.2    36  ALA36       0.2592
     29  O         23.7590    0.2320   24.2410 O.2    36  ALA36      -0.2718
     30  CB        22.3030    0.8840   21.4260 C.3    36  ALA36       0.0304
     31  N         22.4830   -1.4370   23.5480 N.am   37  SER37      -0.1952
     32  CA        22.2760   -1.8290   24.9240 C.3    37  SER37       0.1924
     33  C         23.4780   -2.5570   25.5320 C.2    37  SER37       0.2314
     34  O         23.5740   -2.6490   26.7350 O.2    37  SER37      -0.2863
     35  CB        20.9790   -2.6440   25.0600 C.3    37  SER37       0.2116
     36  OG        21.1290   -3.9050   24.5070 O.3    37  SER37      -0.2180
     37  N         22.6130   -1.2610   29.1850 N.3    41  PRO41      -0.2116
     38  CA        21.2960   -1.8440   28.9230 C.3    41  PRO41       0.1372
     39  C         20.1570   -1.1130   29.6030 C.2    41  PRO41       0.2244
     40  O         19.0950   -0.9550   29.0370 O.2    41  PRO41      -0.2868
     41  CB        21.4380   -3.2760   29.4420 C.3    41  PRO41       0.0268
     42  CG        22.4350   -3.1150   30.5570 C.3    41  PRO41       0.0207
     43  CD        23.4770   -2.2450   29.8730 C.3    41  PRO41       0.0892
     44  N         19.4260    2.1460   27.7340 N.3    44  ALA44      -0.1231
     45  CA        18.7720    1.8410   26.4510 C.3    44  ALA44       0.1694
     46  C         17.3020    1.5120   26.6850 C.2    44  ALA44       0.2591
     47  O         16.4230    1.9770   25.9490 O.2    44  ALA44      -0.2718
     48  CB        19.4860    0.6520   25.7580 C.3    44  ALA44       0.0304
     49  N         17.0080    0.7320   27.7150 N.am   45  ALA45      -0.1980
     50  CA        15.5920    0.3540   27.9670 C.3    45  ALA45       0.1597
     51  C         14.7550    1.5740   28.4240 C.2    45  ALA45       0.2287
     52  O         13.5810    1.7530   28.0000 O.2    45  ALA45      -0.2864
     53  CB        15.5320   -0.8300   29.0370 C.3    45  ALA45       0.0319
     54  N         13.9080    3.7480   25.4520 N.3    48  VAL48      -0.1245
     55  CA        12.7840    3.2510   24.6550 C.3    48  VAL48       0.1561
     56  C         11.4730    3.6270   25.3540 C.2    48  VAL48       0.2260
     57  O         10.4870    3.9980   24.6950 O.2    48  VAL48      -0.2867
     58  CB        12.8890    1.7630   24.4870 C.3    48  VAL48       0.0252
     59  CG1       11.5510    1.1740   23.9910 C.3    48  VAL48       0.0019
     60  CG2       13.9980    1.4750   23.5480 C.3    48  VAL48       0.0019
     61  N         19.3090    8.1310   24.5410 N.3   116  PHE116     -0.1241
     62  CA        19.9470    6.8690   24.1410 C.3   116  PHE116      0.1605
     63  C         21.4520    6.8040   24.4250 C.2   116  PHE116      0.2264
     64  O         22.1480    7.7710   24.2740 O.2   116  PHE116     -0.2867
     65  CB        19.6890    6.5860   22.6390 C.3   116  PHE116      0.0534
     66  CG        18.2950    6.0990   22.3680 C.ar  116  PHE116     -0.0203
     67  CD1       17.2660    6.9980   22.1100 C.ar  116  PHE116     -0.0042
     68  CD2       17.9900    4.7480   22.5090 C.ar  116  PHE116     -0.0042
     69  CE1       15.9430    6.5540   22.0140 C.ar  116  PHE116     -0.0003
     70  CE2       16.6940    4.2900   22.4190 C.ar  116  PHE116     -0.0003
     71  CZ        15.6590    5.1740   22.1770 C.ar  116  PHE116     -0.0000
     72  N          9.3820  -18.7790   29.2170 N.3   182  ILE182     -0.1245
     73  CA        10.3700  -18.7340   28.1390 C.3   182  ILE182      0.1561
     74  C         10.9960  -17.3190   28.1970 C.2   182  ILE182      0.2260
     75  O         12.2150  -17.1520   28.1390 O.2   182  ILE182     -0.2867
     76  CB         9.6720  -18.9480   26.7710 C.3   182  ILE182      0.0252
     77  CG1        8.9710  -20.3010   26.8000 C.3   182  ILE182      0.0019
     78  CG2       10.6690  -18.8150   25.6550 C.3   182  ILE182      0.0019
     79  CD1        8.3190  -20.7550   25.5030 C.3   182  ILE182      0.0001
     80  N         15.3830  -15.3640   29.2600 N.3   186  LEU186     -0.1245
     81  CA        16.2470  -14.6450   28.3140 C.3   186  LEU186      0.1561
     82  C         16.7600  -13.3600   28.8780 C.2   186  LEU186      0.2260
     83  O         16.1720  -12.8280   29.8080 O.2   186  LEU186     -0.2867
     84  CB        15.4750  -14.3690   27.0200 C.3   186  LEU186      0.0270
     85  CG        14.9250  -15.6230   26.2960 C.3   186  LEU186      0.0019
     86  CD1       13.8860  -15.1870   25.2310 C.3   186  LEU186      0.0001
     87  CD2       16.1140  -16.3990   25.6420 C.3   186  LEU186      0.0001
     88  N         16.9630   -9.7820   27.9800 N.3   188  TRP188     -0.1227
     89  CA        16.4590   -8.8510   26.9920 C.3   188  TRP188      0.1737
     90  C         17.3300   -7.6550   26.7620 C.2   188  TRP188      0.2596
     91  O         17.0780   -6.8550   25.8400 O.2   188  TRP188     -0.2718
     92  CB        15.0100   -8.4380   27.3400 C.3   188  TRP188      0.0564
     93  CG        14.1060   -9.6590   27.3310 C.ar  188  TRP188      0.0003
     94  CD1       14.0240  -10.6080   28.2900 C.ar  188  TRP188      0.0946
     95  CD2       13.2500  -10.0850   26.2720 C.ar  188  TRP188      0.0152
     96  NE1       13.1700  -11.5990   27.9070 N.ar  188  TRP188     -0.2442
     97  CE2       12.6770  -11.3090   26.6670 C.ar  188  TRP188      0.0810
     98  CE3       12.9020   -9.5440   25.0160 C.ar  188  TRP188      0.0012
     99  CZ2       11.7770  -12.0170   25.8600 C.ar  188  TRP188      0.0191
    100  CZ3       11.9950  -10.2530   24.2040 C.ar  188  TRP188      0.0001
    101  CH2       11.4500  -11.4780   24.6390 C.ar  188  TRP188      0.0015
    102  N         18.3610   -7.5300   27.5880 N.am  189  GLY189     -0.1957
    103  CA        19.2780   -6.4200   27.4230 C.3   189  GLY189      0.1869
    104  C         20.4780   -6.8480   26.6110 C.2   189  GLY189      0.2309
    105  O         21.3180   -6.0340   26.2460 O.2   189  GLY189     -0.2863
    106  N         20.4140   -9.5980   23.6270 N.3   191  SER191     -0.1217
    107  CA        19.8480  -10.6480   22.7960 C.3   191  SER191      0.1889
    108  C         20.6500  -10.7270   21.5230 C.2   191  SER191      0.2288
    109  O         20.4390   -9.9900   20.5850 O.2   191  SER191     -0.2866
    110  CB        18.3770  -10.3740   22.4810 C.3   191  SER191      0.2089
    111  OG        18.1560   -9.0070   22.2330 O.3   191  SER191     -0.2183
    112  N         18.8750  -11.1680   17.8220 N.3   194  ILE194     -0.1231
    113  CA        18.1780   -9.9740   17.3680 C.3   194  ILE194      0.1692
    114  C         19.1640   -8.8910   16.9930 C.2   194  ILE194      0.2592
    115  O         18.9880   -8.1870   15.9800 O.2   194  ILE194     -0.2718
    116  CB        17.1910   -9.4930   18.4780 C.3   194  ILE194      0.0266
    117  CG1       16.0850  -10.5410   18.6410 C.3   194  ILE194      0.0019
    118  CG2       16.5470   -8.1340   18.1260 C.3   194  ILE194      0.0020
    119  CD1       15.0060  -10.4270   17.5640 C.3   194  ILE194      0.0001
    120  N         20.2320   -8.7560   17.7800 N.am  195  SER195     -0.1952
    121  CA        21.2260   -7.7500   17.4670 C.3   195  SER195      0.1924
    122  C         21.8970   -8.0900   16.1600 C.2   195  SER195      0.2314
    123  O         22.0790   -7.2170   15.2910 O.2   195  SER195     -0.2863
    124  CB        22.3020   -7.6520   18.5580 C.3   195  SER195      0.2116
    125  OG        21.7460   -7.0200   19.6860 O.3   195  SER195     -0.2180
    126  N         19.5460   -7.1740   13.2680 N.3   198  ILE198     -0.1245
    127  CA        19.4940   -5.7460   13.0450 C.3   198  ILE198      0.1561
    128  C         20.7760   -5.2260   12.3750 C.2   198  ILE198      0.2260
    129  O         20.7320   -4.3890   11.4680 O.2   198  ILE198     -0.2867
    130  CB        19.2750   -5.0190   14.3890 C.3   198  ILE198      0.0252
    131  CG1       17.8540   -5.3330   14.9190 C.3   198  ILE198      0.0019
    132  CG2       19.5870   -3.5320   14.2450 C.3   198  ILE198      0.0019
    133  CD1       17.5970   -4.7980   16.3380 C.3   198  ILE198      0.0001
    134  N         14.0560  -16.8850   13.1750 N.3   288  GLN288     -0.1231
    135  CA        13.2010  -17.6340   14.0820 C.3   288  GLN288      0.1698
    136  C         13.7940  -18.9890   14.5000 C.2   288  GLN288      0.2592
    137  O         13.5860  -19.3980   15.6530 O.2   288  GLN288     -0.2718
    138  CB        11.8100  -17.8410   13.4920 C.3   288  GLN288      0.0381
    139  CG        11.1010  -16.5320   13.0990 C.3   288  GLN288      0.0905
    140  CD        10.9810  -15.5400   14.2590 C.2   288  GLN288      0.2608
    141  OE1       10.4760  -15.8690   15.3210 O.2   288  GLN288     -0.2717
    142  NE2       11.4580  -14.3210   14.0440 N.am  288  GLN288     -0.0878
    143  N         14.4990  -19.6990   13.5970 N.am  289  MET289     -0.1979
    144  CA        15.1360  -20.9730   13.9810 C.3   289  MET289      0.1605
    145  C         16.1990  -20.6660   15.0500 C.2   289  MET289      0.2287
    146  O         16.2890  -21.3360   16.0510 O.2   289  MET289     -0.2864
    147  CB        15.8510  -21.6620   12.8150 C.3   289  MET289      0.0413
    148  CG        15.0050  -22.6120   11.9950 C.3   289  MET289      0.0598
    149  SD        14.2170  -23.9250   12.9870 S.3   289  MET289     -0.1393
    150  CE        12.6320  -24.0530   12.1990 C.3   289  MET289      0.0692
    151  N         16.3080  -18.1070   17.2000 N.3   291  LEU291     -0.1231
    152  CA        15.6320  -17.7290   18.4520 C.3   291  LEU291      0.1693
    153  C         15.1070  -19.0270   19.1270 C.2   291  LEU291      0.2592
    154  O         15.3180  -19.2520   20.3430 O.2   291  LEU291     -0.2718
    155  CB        14.4720  -16.7320   18.1610 C.3   291  LEU291      0.0284
    156  CG        14.9870  -15.3130   17.7770 C.3   291  LEU291      0.0019
    157  CD1       13.8820  -14.5130   17.1400 C.3   291  LEU291      0.0001
    158  CD2       15.5630  -14.5890   19.0430 C.3   291  LEU291      0.0001
    159  N         14.4500  -19.8850   18.3320 N.am  292  PHE292     -0.1976
    160  CA        13.9450  -21.1970   18.8020 C.3   292  PHE292      0.1639
    161  C         15.1020  -22.0610   19.3880 C.2   292  PHE292      0.2290
    162  O         14.9260  -22.7180   20.4040 O.2   292  PHE292     -0.2864
    163  CB        13.3120  -21.9480   17.6270 C.3   292  PHE292      0.0560
    164  CG        12.9400  -23.3640   17.9300 C.ar  292  PHE292     -0.0200
    165  CD1       12.1950  -23.6860   19.0840 C.ar  292  PHE292     -0.0042
    166  CD2       13.2620  -24.3850   17.0410 C.ar  292  PHE292     -0.0042
    167  CE1       11.7610  -25.0150   19.3500 C.ar  292  PHE292     -0.0003
    168  CE2       12.8240  -25.7290   17.2950 C.ar  292  PHE292     -0.0003
    169  CZ        12.0680  -26.0300   18.4590 C.ar  292  PHE292     -0.0000
    170  N         15.8300  -21.5480   23.0490 N.3   295  ASN295     -0.1240
    171  CA        14.8060  -21.8750   24.0180 C.3   295  ASN295      0.1653
    172  C         14.6980  -23.3810   24.3230 C.2   295  ASN295      0.2266
    173  O         15.2020  -24.2040   23.5890 O.2   295  ASN295     -0.2867
    174  CB        13.4530  -21.3890   23.5080 C.3   295  ASN295      0.1155
    175  CG        13.3820  -19.8760   23.3800 C.2   295  ASN295      0.2627
    176  OD1       14.0410  -19.1760   24.1360 O.2   295  ASN295     -0.2716
    177  ND2       12.5730  -19.3640   22.4310 N.am  295  ASN295     -0.0877
    178  N          8.7740  -24.3810   24.1850 N.3   300  ALA300     -0.1231
    179  CA         8.4500  -23.5520   23.0260 C.3   300  ALA300      0.1694
    180  C          7.3580  -24.1720   22.1730 C.2   300  ALA300      0.2591
    181  O          6.4800  -23.4760   21.6860 O.2   300  ALA300     -0.2718
    182  CB         9.6620  -23.2930   22.1910 C.3   300  ALA300      0.0304
    183  N          7.4410  -25.4850   21.9660 N.am  301  LYS301     -0.1980
    184  CA         6.4250  -26.2060   21.2100 C.3   301  LYS301      0.1596
    185  C          5.1130  -26.1260   21.9530 C.2   301  LYS301      0.2287
    186  O          4.0800  -25.9100   21.3570 O.2   301  LYS301     -0.2864
    187  CB         6.8550  -27.6580   21.0000 C.3   301  LYS301      0.0298
    188  CG         7.8380  -27.7740   19.8370 C.3   301  LYS301      0.0038
    189  CD         8.6170  -29.0940   19.7890 C.3   301  LYS301      0.0206
    190  CE         9.6400  -29.0460   18.6290 C.3   301  LYS301      0.1093
    191  NZ        10.8790  -29.8660   18.9110 N.3   301  LYS301     -0.1314
    192  N          3.7470  -22.6820   21.4110 N.3   304  TYR304     -0.1241
    193  CA         3.2230  -22.5200   20.0590 C.3   304  TYR304      0.1605
    194  C          1.7570  -22.9650   20.0160 C.2   304  TYR304      0.2264
    195  O          0.9230  -22.3500   19.3160 O.2   304  TYR304     -0.2867
    196  CB         4.0110  -23.3610   19.0750 C.3   304  TYR304      0.0534
    197  CG         3.4760  -23.2900   17.6500 C.ar  304  TYR304     -0.0201
    198  CD1        3.6560  -22.1400   16.8660 C.ar  304  TYR304     -0.0009
    199  CD2        2.7900  -24.3810   17.0710 C.ar  304  TYR304     -0.0009
    200  CE1        3.1800  -22.0920   15.5590 C.ar  304  TYR304      0.0417
    201  CE2        2.3000  -24.3230   15.7670 C.ar  304  TYR304      0.0417
    202  CZ         2.5010  -23.1850   15.0160 C.ar  304  TYR304      0.1957
    203  OH         2.0630  -23.1230   13.6990 O.3   304  TYR304     -0.2866
@<TRIPOS>BOND
     1   129   128    2
     2   148   147    1
     3   148   149    1
     4   150   149    1
     5   128   127    1
     6   147   144    1
     7   127   126    1
     8   127   130    1
     9   139   138    1
    10   139   140    1
    11   134   135    1
    12   138   135    1
    13   143   144    1
    14   143   136   am
    15   203   202    1
    16   144   145    1
    17   142   140   am
    18   135   136    1
    19   132   130    1
    20   140   141    2
    21   130   131    1
    22   136   137    2
    23    20    18    1
    24   131   133    1
    25   202   200   ar
    26   202   201   ar
    27   145   146    2
    28   123   122    2
    29     1     2    1
    30   200   198   ar
    31    18    17    1
    32   201   199   ar
    33   115   114    2
    34   122   121    1
    35    25    22    1
    36    17    19    1
    37    17    14    1
    38     5     2    1
    39     5     6    1
    40    13    14    1
    41    13     3   am
    42     2     3    1
    43   198   197   ar
    44    21    22    1
    45    21    15   am
    46   114   113    1
    47   114   120   am
    48   166   168   ar
    49   166   164   ar
    50   199   197   ar
    51   157   156    1
    52    14    15    1
    53   151   152    1
    54    22    23    1
    55   168   169   ar
    56   113   112    1
    57   113   116    1
    58     3     4    2
    59   121   120    1
    60   121   124    1
    61   119   117    1
    62   163   164    1
    63   163   160    1
    64   197   196    1
    65    15    16    2
    66     6     8   ar
    67     6     7   ar
    68   156   155    1
    69   156   158    1
    70     8    10   ar
    71   164   165   ar
    72   118   116    1
    73   155   152    1
    74   159   160    1
    75   159   153   am
    76   152   153    1
    77   169   167   ar
    78   116   117    1
    79    23    24    2
    80   124   125    1
    81   190   191    1
    82   190   189    1
    83   160   161    1
    84     7     9   ar
    85    10    11   ar
    86   196   193    1
    87   165   167   ar
    88   153   154    2
    89   195   194    2
    90   161   162    2
    91   189   188    1
    92   188   187    1
    93     9    11   ar
    94   194   193    1
    95   193   192    1
    96    11    12    1
    97   109   108    2
    98    26    27    1
    99   187   184    1
   100   184   185    1
   101   184   183    1
   102   186   185    2
   103    30    27    1
   104   108   107    1
   105   181   180    2
   106    27    28    1
   107   183   180   am
   108    69    67   ar
   109    69    71   ar
   110    67    66   ar
   111   180   179    1
   112    71    70   ar
   113   182   179    1
   114   111   110    1
   115    66    68   ar
   116    66    65    1
   117    70    68   ar
   118   177   175   am
   119   110   107    1
   120    65    62    1
   121   107   106    1
   122   179   178    1
   123   170   171    1
   124    28    31   am
   125    28    29    2
   126   175   174    1
   127   175   176    2
   128   174   171    1
   129    31    32    1
   130    60    58    1
   131   173   172    2
   132    59    58    1
   133   171   172    1
   134    62    63    1
   135    62    61    1
   136   100   101   ar
   137   100    98   ar
   138    64    63    2
   139    58    55    1
   140    36    35    1
   141   101    99   ar
   142    55    56    1
   143    55    54    1
   144    57    56    2
   145    32    35    1
   146    32    33    1
   147    98    95   ar
   148    86    85    1
   149    79    77    1
   150    33    34    2
   151    87    85    1
   152    78    76    1
   153    48    45    1
   154    91    90    2
   155    99    97   ar
   156    47    46    2
   157   105   104    2
   158    95    97   ar
   159    95    93   ar
   160    85    84    1
   161    45    46    1
   162    45    44    1
   163   104   103    1
   164    97    96   ar
   165    46    49   am
   166    90    89    1
   167    90   102   am
   168    76    77    1
   169    76    73    1
   170    89    92    1
   171    89    88    1
   172    84    81    1
   173    93    92    1
   174    93    94   ar
   175   103   102    1
   176    49    50    1
   177    96    94   ar
   178    50    51    1
   179    50    53    1
   180    52    51    2
   181    75    74    2
   182    73    74    1
   183    73    72    1
   184    81    82    1
   185    81    80    1
   186    82    83    2
   187    38    37    1
   188    38    41    1
   189    38    39    1
   190    40    39    2
   191    37    43    1
   192    41    42    1
   193    43    42    1
