@<TRIPOS>MOLECULE
tmp/2c9eA05.pdb
 229 219 0 0 0
SMALL
GASTEIGER

@<TRIPOS>ATOM
      1  N         14.9080   22.8760    4.9720 N.3    10  PHE10      -0.1241
      2  CA        15.6230   21.7400    5.5340 C.3    10  PHE10       0.1605
      3  C         15.7410   20.6280    4.4950 C.2    10  PHE10       0.2264
      4  O         16.8050   20.0050    4.3110 O.2    10  PHE10      -0.2867
      5  CB        14.9000   21.2410    6.7900 C.3    10  PHE10       0.0534
      6  CG        15.5010   19.9860    7.3980 C.ar   10  PHE10      -0.0203
      7  CD1       16.7220   20.0430    8.0800 C.ar   10  PHE10      -0.0042
      8  CD2       14.7850   18.7800    7.3640 C.ar   10  PHE10      -0.0042
      9  CE1       17.2540   18.9130    8.7620 C.ar   10  PHE10      -0.0003
     10  CE2       15.2690   17.6310    8.0180 C.ar   10  PHE10      -0.0003
     11  CZ        16.5240   17.6790    8.7400 C.ar   10  PHE10      -0.0000
     12  N         19.1880   18.8160    2.9810 N.3    14  THR14      -0.1218
     13  CA        19.5110   17.4500    3.3440 C.3    14  THR14       0.1862
     14  C         19.4250   16.3700    2.2820 C.2    14  THR14       0.2287
     15  O         20.1260   15.3320    2.3760 O.2    14  THR14      -0.2866
     16  CB        18.6500   17.0340    4.5330 C.3    14  THR14       0.1770
     17  OG1       17.2660   17.2690    4.2370 O.3    14  THR14      -0.2211
     18  CG2       19.0170   17.8410    5.7480 C.3    14  THR14       0.0375
     19  N         22.6530   15.1340    0.8980 N.3    17  ILE17      -0.1231
     20  CA        23.4050   14.3200    1.8630 C.3    17  ILE17       0.1692
     21  C         22.7450   12.9400    1.9180 C.2    17  ILE17       0.2591
     22  O         23.4250   11.9070    1.9510 O.2    17  ILE17      -0.2718
     23  CB        23.3680   14.9710    3.2760 C.3    17  ILE17       0.0266
     24  CG1       24.0690   16.3430    3.2030 C.3    17  ILE17       0.0019
     25  CG2       23.9490   13.9730    4.3360 C.3    17  ILE17       0.0020
     26  CD1       24.0050   17.2040    4.4990 C.3    17  ILE17       0.0001
     27  N         21.4110   12.9340    1.9470 N.am   18  ALA18      -0.1980
     28  CA        20.6440   11.6880    1.9530 C.3    18  ALA18       0.1597
     29  C         21.0190   10.7800    0.7480 C.2    18  ALA18       0.2287
     30  O         21.1530    9.5390    0.8820 O.2    18  ALA18      -0.2864
     31  CB        19.1580   12.0190    1.9110 C.3    18  ALA18       0.0319
     32  N         23.9370    8.5930    1.3770 N.3    21  PHE21      -0.1241
     33  CA        23.8960    7.7330    2.5510 C.3    21  PHE21       0.1605
     34  C         23.4920    6.3010    2.2710 C.2    21  PHE21       0.2264
     35  O         22.5810    6.0200    1.4620 O.2    21  PHE21      -0.2867
     36  CB        22.9730    8.3240    3.6300 C.3    21  PHE21       0.0534
     37  CG        23.2100    7.7360    5.0020 C.ar   21  PHE21      -0.0203
     38  CD1       24.2330    8.2380    5.8260 C.ar   21  PHE21      -0.0042
     39  CD2       22.4580    6.6430    5.4400 C.ar   21  PHE21      -0.0042
     40  CE1       24.5070    7.6620    7.0520 C.ar   21  PHE21      -0.0003
     41  CE2       22.7220    6.0520    6.6730 C.ar   21  PHE21      -0.0003
     42  CZ        23.7470    6.5600    7.4810 C.ar   21  PHE21      -0.0000
     43  N         21.5290    3.8990    3.1150 N.3    23  TRP23      -0.1241
     44  CA        20.2940    3.5140    3.7690 C.3    23  TRP23       0.1605
     45  C         20.1000    2.0270    3.9270 C.2    23  TRP23       0.2264
     46  O         19.5930    1.5800    4.9510 O.2    23  TRP23      -0.2867
     47  CB        19.0940    4.0790    3.0200 C.3    23  TRP23       0.0550
     48  CG        19.1600    5.5470    2.9680 C.ar   23  TRP23       0.0003
     49  CD1       19.5400    6.3080    1.9030 C.ar   23  TRP23       0.0946
     50  CD2       18.9500    6.4530    4.0570 C.ar   23  TRP23       0.0152
     51  NE1       19.5840    7.6380    2.2510 N.ar   23  TRP23      -0.2442
     52  CE2       19.2310    7.7550    3.5750 C.ar   23  TRP23       0.0810
     53  CE3       18.5520    6.2970    5.3940 C.ar   23  TRP23       0.0012
     54  CZ2       19.1210    8.8940    4.3860 C.ar   23  TRP23       0.0191
     55  CZ3       18.4380    7.4180    6.1970 C.ar   23  TRP23       0.0001
     56  CH2       18.7220    8.7100    5.6820 C.ar   23  TRP23       0.0015
     57  N         10.8610    7.1380   24.5450 N.3    51  LEU51      -0.1245
     58  CA        10.4360    7.2750   23.1470 C.3    51  LEU51       0.1561
     59  C          8.8940    7.0210   22.9630 C.2    51  LEU51       0.2260
     60  O          8.1580    7.7450   22.2250 O.2    51  LEU51      -0.2867
     61  CB        11.2560    6.2890   22.3090 C.3    51  LEU51       0.0270
     62  CG        11.0030    6.2780   20.8050 C.3    51  LEU51       0.0019
     63  CD1       11.5400    7.5720   20.1870 C.3    51  LEU51       0.0001
     64  CD2       11.6790    5.0070   20.1870 C.3    51  LEU51       0.0001
     65  N         10.3930   12.8620   -0.2020 N.3    90  PHE90      -0.1241
     66  CA        11.3300   13.2300    0.8510 C.3    90  PHE90       0.1605
     67  C         10.8750   14.4810    1.5590 C.2    90  PHE90       0.2264
     68  O         10.7500   14.4990    2.7810 O.2    90  PHE90      -0.2867
     69  CB        12.7250   13.4980    0.2930 C.3    90  PHE90       0.0534
     70  CG        13.7780   13.7210    1.3680 C.ar   90  PHE90      -0.0203
     71  CD1       14.2690   12.6380    2.1090 C.ar   90  PHE90      -0.0042
     72  CD2       14.2970   15.0130    1.6090 C.ar   90  PHE90      -0.0042
     73  CE1       15.2870   12.8130    3.0830 C.ar   90  PHE90      -0.0003
     74  CE2       15.3050   15.2140    2.5700 C.ar   90  PHE90      -0.0003
     75  CZ        15.8120   14.1020    3.3140 C.ar   90  PHE90      -0.0000
     76  N          9.4150   15.1150    5.6620 N.3    94  ASN94      -0.1240
     77  CA         9.8660   16.0840    6.6270 C.3    94  ASN94       0.1653
     78  C          8.8240   17.0410    7.0940 C.2    94  ASN94       0.2266
     79  O          8.8490   17.4650    8.2540 O.2    94  ASN94      -0.2867
     80  CB        11.0440   16.8840    6.0850 C.3    94  ASN94       0.1155
     81  CG        12.2840   16.0330    5.9530 C.2    94  ASN94       0.2627
     82  OD1       12.4850   15.1110    6.7580 O.2    94  ASN94      -0.2716
     83  ND2       13.1150   16.3160    4.9370 N.am   94  ASN94      -0.0877
     84  N         14.6600   13.4300   24.1450 N.3   112  LEU112     -0.1231
     85  CA        15.1460   12.2450   23.4470 C.3   112  LEU112      0.1693
     86  C         16.5450   12.3990   22.9020 C.2   112  LEU112      0.2591
     87  O         17.2210   11.3870   22.6150 O.2   112  LEU112     -0.2718
     88  CB        14.1850   11.8300   22.3300 C.3   112  LEU112      0.0284
     89  CG        13.0270   11.0600   22.9940 C.3   112  LEU112      0.0019
     90  CD1       11.7910   10.9500   22.0360 C.3   112  LEU112      0.0001
     91  CD2       13.5460    9.6370   23.3480 C.3   112  LEU112      0.0001
     92  N         17.0060   13.6500   22.7580 N.am  113  ARG113     -0.1980
     93  CA        18.3520   13.9260   22.2330 C.3   113  ARG113      0.1597
     94  C         19.4660   13.2840   23.0430 C.2   113  ARG113      0.2287
     95  O         20.4680   12.8530   22.5030 O.2   113  ARG113     -0.2864
     96  CB        18.6110   15.4420   22.2260 C.3   113  ARG113      0.0334
     97  CG        20.0110   15.8620   21.7310 C.3   113  ARG113      0.0492
     98  CD        20.0900   17.3880   21.6480 C.3   113  ARG113      0.2205
     99  NE        20.1270   17.9590   23.0060 N.pl3 113  ARG113     -0.0865
    100  CZ        21.2350   18.1150   23.7290 C.cat 113  ARG113      0.5346
    101  NH1       22.4410   17.7520   23.2120 N.pl3 113  ARG113      0.1354
    102  NH2       21.1390   18.6130   24.9840 N.pl3 113  ARG113      0.1354
    103  N         19.3090    8.1310   24.5410 N.3   116  PHE116     -0.1241
    104  CA        19.9470    6.8690   24.1410 C.3   116  PHE116      0.1605
    105  C         21.4520    6.8040   24.4250 C.2   116  PHE116      0.2264
    106  O         22.1480    7.7710   24.2740 O.2   116  PHE116     -0.2867
    107  CB        19.6890    6.5860   22.6390 C.3   116  PHE116      0.0534
    108  CG        18.2950    6.0990   22.3680 C.ar  116  PHE116     -0.0203
    109  CD1       17.2660    6.9980   22.1100 C.ar  116  PHE116     -0.0042
    110  CD2       17.9900    4.7480   22.5090 C.ar  116  PHE116     -0.0042
    111  CE1       15.9430    6.5540   22.0140 C.ar  116  PHE116     -0.0003
    112  CE2       16.6940    4.2900   22.4190 C.ar  116  PHE116     -0.0003
    113  CZ        15.6590    5.1740   22.1770 C.ar  116  PHE116     -0.0000
    114  N         24.9230    8.1490   21.9570 N.3   119  SER119     -0.1202
    115  CA        24.4340    8.6590   20.6850 C.3   119  SER119      0.2020
    116  C         25.4330    9.6970   20.1380 C.2   119  SER119      0.2618
    117  O         25.3690   10.0470   18.9620 O.2   119  SER119     -0.2717
    118  CB        23.0480    9.2630   20.8640 C.3   119  SER119      0.2103
    119  OG        23.1700   10.4620   21.5810 O.3   119  SER119     -0.2182
    120  N         26.3680   10.1600   20.9790 N.am  120  ARG120     -0.1979
    121  CA        27.4080   11.1190   20.5570 C.3   120  ARG120      0.1597
    122  C         28.5020   10.5080   19.6670 C.2   120  ARG120      0.2287
    123  O         29.0030   11.1500   18.7340 O.2   120  ARG120     -0.2864
    124  CB        28.1020   11.7330   21.7700 C.3   120  ARG120      0.0334
    125  CG        29.3060   12.6230   21.4370 C.3   120  ARG120      0.0492
    126  CD        29.5030   13.6190   22.5660 C.3   120  ARG120      0.2205
    127  NE        30.8390   13.6000   23.1700 N.pl3 120  ARG120     -0.0865
    128  CZ        31.8310   14.4340   22.8420 C.cat 120  ARG120      0.5346
    129  NH1       31.6640   15.3710   21.8920 N.pl3 120  ARG120      0.1354
    130  NH2       32.9830   14.3610   23.5010 N.pl3 120  ARG120      0.1354
    131  N         26.8260   10.0470   16.2890 N.3   123  GLN123     -0.1245
    132  CA        26.7330   11.2730   15.5300 C.3   123  GLN123      0.1566
    133  C         28.1120   11.6480   14.9480 C.2   123  GLN123      0.2260
    134  O         28.2230   12.0460   13.7730 O.2   123  GLN123     -0.2867
    135  CB        26.1400   12.3840   16.3950 C.3   123  GLN123      0.0367
    136  CG        25.9170   13.6200   15.6120 C.3   123  GLN123      0.0905
    137  CD        24.9020   14.4970   16.2500 C.2   123  GLN123      0.2608
    138  OE1       23.8410   14.0270   16.6740 O.2   123  GLN123     -0.2717
    139  NE2       25.2000   15.7980   16.3250 N.am  123  GLN123     -0.0878
    140  N         30.1140   12.3420    6.1130 N.3   130  ASN130     -0.1240
    141  CA        29.4760   13.3440    5.2720 C.3   130  ASN130      0.1653
    142  C         30.5020   14.4280    4.8960 C.2   130  ASN130      0.2266
    143  O         31.6500   14.4680    5.4110 O.2   130  ASN130     -0.2867
    144  CB        28.3050   14.0630    5.9800 C.3   130  ASN130      0.1155
    145  CG        27.1760   13.1240    6.4070 C.2   130  ASN130      0.2627
    146  OD1       26.9040   12.0930    5.7710 O.2   130  ASN130     -0.2716
    147  ND2       26.4960   13.4970    7.4850 N.am  130  ASN130     -0.0877
    148  N         27.1060   19.0880    5.8260 N.3   135  ALA135     -0.1231
    149  CA        26.3560   18.7830    7.0590 C.3   135  ALA135      0.1694
    150  C         26.1730   20.0740    7.9330 C.2   135  ALA135      0.2591
    151  O         25.1330   20.2780    8.5400 O.2   135  ALA135     -0.2718
    152  CB        27.1150   17.6790    7.8780 C.3   135  ALA135      0.0304
    153  N         27.1780   20.9370    7.9870 N.am  136  GLU136     -0.1979
    154  CA        27.0460   22.1430    8.8110 C.3   136  GLU136      0.1602
    155  C         25.9100   23.0200    8.3440 C.2   136  GLU136      0.2287
    156  O         25.1210   23.5180    9.1550 O.2   136  GLU136     -0.2864
    157  CB        28.3590   22.9030    8.8440 C.3   136  GLU136      0.0415
    158  CG        29.3570   22.1900    9.7510 C.3   136  GLU136      0.1163
    159  CD        30.8160   22.5190    9.4280 C.2   136  GLU136      0.3649
    160  OE1       31.0730   23.4890    8.6400 O.co2 136  GLU136     -0.2457
    161  OE2       31.6910   21.7890    9.9610 O.co2 136  GLU136     -0.2457
    162  N         23.3790   21.9450    6.5760 N.3   138  ALA138     -0.1231
    163  CA        22.1590   21.2070    6.8900 C.3   138  ALA138      0.1694
    164  C         21.7290   21.4370    8.3710 C.2   138  ALA138      0.2592
    165  O         20.5530   21.6650    8.6610 O.2   138  ALA138     -0.2718
    166  CB        22.3890   19.7280    6.6420 C.3   138  ALA138      0.0304
    167  N         22.6840   21.3930    9.2930 N.am  139  TYR139     -0.1962
    168  CA        22.3660   21.5870   10.7060 C.3   139  TYR139      0.1771
    169  C         21.8430   22.9900   10.9630 C.2   139  TYR139      0.2619
    170  O         20.9170   23.1910   11.7550 O.2   139  TYR139     -0.2715
    171  CB        23.5880   21.3110   11.6110 C.3   139  TYR139      0.0574
    172  CG        23.2760   21.4880   13.0960 C.ar  139  TYR139     -0.0198
    173  CD1       22.3250   20.6780   13.7320 C.ar  139  TYR139     -0.0009
    174  CD2       23.8950   22.4820   13.8460 C.ar  139  TYR139     -0.0009
    175  CE1       22.0110   20.8600   15.0550 C.ar  139  TYR139      0.0417
    176  CE2       23.5810   22.6730   15.1820 C.ar  139  TYR139      0.0417
    177  CZ        22.6450   21.8550   15.7730 C.ar  139  TYR139      0.1957
    178  OH        22.3750   21.9900   17.1100 O.3   139  TYR139     -0.2866
    179  N         22.4150   23.9910   10.3150 N.am  140  ASP140     -0.1971
    180  CA        21.8420   25.3050   10.5600 C.3   140  ASP140      0.1709
    181  C         20.4030   25.3820   10.0690 C.2   140  ASP140      0.2293
    182  O         19.5710   26.0280   10.7090 O.2   140  ASP140     -0.2864
    183  CB        22.7290   26.4380   10.0130 C.3   140  ASP140      0.1436
    184  CG        23.4680   27.1560   11.1680 C.2   140  ASP140      0.3671
    185  OD1       24.4350   26.5770   11.7300 O.co2 140  ASP140     -0.2456
    186  OD2       23.0250   28.2600   11.5930 O.co2 140  ASP140     -0.2456
    187  N         18.4060   22.7860   10.0040 N.3   142  PHE142     -0.1227
    188  CA        17.6480   21.9550   10.9800 C.3   142  PHE142      0.1736
    189  C         17.2430   22.8480   12.2000 C.2   142  PHE142      0.2595
    190  O         16.0910   22.8190   12.6730 O.2   142  PHE142     -0.2718
    191  CB        18.4990   20.7730   11.4520 C.3   142  PHE142      0.0547
    192  CG        17.8760   19.9800   12.5880 C.ar  142  PHE142     -0.0202
    193  CD1       16.7820   19.1620   12.3780 C.ar  142  PHE142     -0.0042
    194  CD2       18.4000   20.0480   13.8720 C.ar  142  PHE142     -0.0042
    195  CE1       16.2420   18.4260   13.4390 C.ar  142  PHE142     -0.0003
    196  CE2       17.8490   19.3150   14.9030 C.ar  142  PHE142     -0.0003
    197  CZ        16.7920   18.5180   14.6830 C.ar  142  PHE142     -0.0000
    198  N         18.1840   23.6640   12.6890 N.am  143  LYS143     -0.1980
    199  CA        17.8730   24.5420   13.7880 C.3   143  LYS143      0.1596
    200  C         16.7200   25.4730   13.4410 C.2   143  LYS143      0.2287
    201  O         15.7930   25.6520   14.2390 O.2   143  LYS143     -0.2864
    202  CB        19.0940   25.3580   14.1650 C.3   143  LYS143      0.0298
    203  CG        20.2520   24.5060   14.7070 C.3   143  LYS143      0.0038
    204  CD        21.1830   25.3490   15.5270 C.3   143  LYS143      0.0206
    205  CE        22.1120   26.1790   14.6840 C.3   143  LYS143      0.1093
    206  NZ        23.2450   26.7160   15.5130 N.3   143  LYS143     -0.1314
    207  N          9.4520   -3.1260    5.6160 N.3   213  ILE213     -0.1245
    208  CA         9.1090   -1.9780    6.4700 C.3   213  ILE213      0.1561
    209  C          7.8390   -1.3320    5.9590 C.2   213  ILE213      0.2260
    210  O          6.9540   -0.9420    6.7340 O.2   213  ILE213     -0.2867
    211  CB        10.2000   -0.8990    6.4610 C.3   213  ILE213      0.0252
    212  CG1       11.5090   -1.4680    7.0640 C.3   213  ILE213      0.0019
    213  CG2        9.6850    0.3660    7.1860 C.3   213  ILE213      0.0019
    214  CD1       11.3630   -1.9820    8.5230 C.3   213  ILE213      0.0001
    215  N          4.8070   -3.2250    6.7430 N.3   216  THR216     -0.1203
    216  CA         4.5280   -3.1160    8.1760 C.3   216  THR216      0.1994
    217  C          3.8160   -1.7930    8.4760 C.2   216  THR216      0.2617
    218  O          2.8750   -1.7280    9.2780 O.2   216  THR216     -0.2717
    219  CB         5.8670   -3.2300    8.9690 C.3   216  THR216      0.1784
    220  OG1        6.4410   -4.5130    8.7190 O.3   216  THR216     -0.2211
    221  CG2        5.6620   -3.1160   10.4520 C.3   216  THR216      0.0376
    222  N          4.2840   -0.7130    7.8630 N.am  217  LEU217     -0.1979
    223  CA         3.6410    0.5600    8.0760 C.3   217  LEU217      0.1596
    224  C          2.2020    0.4780    7.5240 C.2   217  LEU217      0.2287
    225  O          1.2740    0.9130    8.1520 O.2   217  LEU217     -0.2864
    226  CB         4.4290    1.6650    7.3610 C.3   217  LEU217      0.0297
    227  CG         5.8110    1.9460    7.9300 C.3   217  LEU217      0.0022
    228  CD1        6.2450    3.3300    7.3940 C.3   217  LEU217      0.0001
    229  CD2        5.7830    1.9130    9.4970 C.3   217  LEU217      0.0001
@<TRIPOS>BOND
     1    65    66    1
     2    69    66    1
     3    69    70    1
     4    29    30    2
     5    29    28    1
     6    66    67    1
     7    19    20    1
     8    70    72   ar
     9    70    71   ar
    10    32    33    1
    11    35    34    2
    12    67    68    2
    13    72    74   ar
    14    20    21    1
    15    20    23    1
    16    49    51   ar
    17    49    48   ar
    18    31    28    1
    19    21    27   am
    20    21    22    2
    21    27    28    1
    22    71    73   ar
    23    51    52   ar
    24    34    33    1
    25    14    15    2
    26    14    13    1
    27    33    36    1
    28    74    75   ar
    29    48    47    1
    30    48    50   ar
    31    12    13    1
    32    47    44    1
    33    73    75   ar
    34    43    44    1
    35    24    23    1
    36    24    26    1
    37    23    25    1
    38    13    16    1
    39    52    50   ar
    40    52    54   ar
    41    36    37    1
    42    44    45    1
    43    45    46    2
    44    50    53   ar
    45    17    16    1
    46     4     3    2
    47    54    56   ar
    48     3     2    1
    49    16    18    1
    50   142   141    1
    51   142   143    2
    52    83    81   am
    53     1     2    1
    54    37    39   ar
    55    37    38   ar
    56   141   144    1
    57   141   140    1
    58    53    55   ar
    59    39    41   ar
    60     2     5    1
    61   207   208    1
    62    76    77    1
    63    56    55   ar
    64   146   145    2
    65    38    40   ar
    66   148   149    1
    67    81    80    1
    68    81    82    2
    69   209   208    1
    70   209   210    2
    71   144   145    1
    72    80    77    1
    73   145   147   am
    74   211   208    1
    75   211   212    1
    76   211   213    1
    77   162   163    1
    78    77    78    1
    79   166   163    1
    80    41    42   ar
    81   215   216    1
    82     5     6    1
    83   163   164    1
    84    40    42   ar
    85   149   152    1
    86   149   150    1
    87   212   214    1
    88    78    79    2
    89   226   227    1
    90   226   223    1
    91     8     6   ar
    92     8    10   ar
    93   228   227    1
    94     6     7   ar
    95   224   223    1
    96   224   225    2
    97   222   223    1
    98   222   217   am
    99   227   229    1
   100   150   153   am
   101   150   151    2
   102   153   154    1
   103    10    11   ar
   104     7     9   ar
   105   216   217    1
   106   216   219    1
   107   155   154    1
   108   155   156    2
   109   164   165    2
   110   164   167   am
   111   217   218    2
   112   160   159   ar
   113   220   219    1
   114    11     9   ar
   115   154   157    1
   116   157   158    1
   117   219   221    1
   118   167   168    1
   119   159   158    1
   120   159   161   ar
   121   187   188    1
   122   183   180    1
   123   183   184    1
   124   181   180    1
   125   181   182    2
   126   179   180    1
   127   179   169   am
   128   168   169    1
   129   168   171    1
   130   169   170    2
   131   188   191    1
   132   188   189    1
   133   184   186   ar
   134   184   185   ar
   135   191   192    1
   136   171   172    1
   137   189   190    2
   138   189   198   am
   139   193   192   ar
   140   193   195   ar
   141   192   194   ar
   142   198   199    1
   143   172   173   ar
   144   172   174   ar
   145   195   197   ar
   146   200   199    1
   147   200   201    2
   148   173   175   ar
   149   134   133    2
   150   199   202    1
   151   174   176   ar
   152   194   196   ar
   153   202   203    1
   154   197   196   ar
   155   205   206    1
   156   205   204    1
   157   203   204    1
   158   133   132    1
   159   175   177   ar
   160   176   177   ar
   161   132   131    1
   162   132   135    1
   163   136   137    1
   164   136   135    1
   165   177   178    1
   166   137   139   am
   167   137   138    2
   168   123   122    2
   169   117   116    2
   170   122   121    1
   171   116   115    1
   172   116   120   am
   173    63    62    1
   174    64    62    1
   175   121   120    1
   176   121   124    1
   177   115   118    1
   178   115   114    1
   179    62    61    1
   180   118   119    1
   181   125   124    1
   182   125   126    1
   183    98    97    1
   184    98    99    1
   185    97    96    1
   186   129   128    1
   187   111   109   ar
   188   111   113   ar
   189    90    89    1
   190   109   108   ar
   191   113   112   ar
   192    60    59    2
   193    96    93    1
   194    93    92    1
   195    93    94    1
   196    61    58    1
   197    88    89    1
   198    88    85    1
   199   108   110   ar
   200   108   107    1
   201   112   110   ar
   202    95    94    2
   203   126   127    1
   204    87    86    2
   205   107   104    1
   206    92    86   am
   207   128   127    2
   208   128   130    1
   209    86    85    1
   210    59    58    1
   211    89    91    1
   212    99   100    2
   213    58    57    1
   214   101   100    1
   215    85    84    1
   216   100   102    1
   217   104   105    1
   218   104   103    1
   219   106   105    2
