@<TRIPOS>MOLECULE
tmp/2c9eA01.pdb
 251 235 0 0 0
SMALL
GASTEIGER

@<TRIPOS>ATOM
      1  N         24.5890    3.3470   11.7540 N.3    29  ILE29      -0.1245
      2  CA        23.3120    3.2670   12.4550 C.3    29  ILE29       0.1561
      3  C         22.9500    1.8090   12.7430 C.2    29  ILE29       0.2260
      4  O         22.6050    1.4750   13.8690 O.2    29  ILE29      -0.2867
      5  CB        22.2010    3.9160   11.6200 C.3    29  ILE29       0.0252
      6  CG1       22.4550    5.4080   11.5480 C.3    29  ILE29       0.0019
      7  CG2       20.8340    3.6730   12.2110 C.3    29  ILE29       0.0019
      8  CD1       21.8610    6.1590   12.6920 C.3    29  ILE29       0.0001
      9  N         22.4490    0.5290   16.6240 N.3    33  ILE33      -0.1245
     10  CA        21.2300   -0.0610   17.2000 C.3    33  ILE33       0.1561
     11  C         21.5030   -1.4770   17.7130 C.2    33  ILE33       0.2260
     12  O         21.1020   -1.8290   18.8230 O.2    33  ILE33      -0.2867
     13  CB        20.0750   -0.1040   16.2030 C.3    33  ILE33       0.0252
     14  CG1       19.7480    1.3030   15.7270 C.3    33  ILE33       0.0019
     15  CG2       18.8660   -0.7530   16.8600 C.3    33  ILE33       0.0019
     16  CD1       18.8300    1.3890   14.5350 C.3    33  ILE33       0.0001
     17  N         13.9080    3.7480   25.4520 N.3    48  VAL48      -0.1245
     18  CA        12.7840    3.2510   24.6550 C.3    48  VAL48       0.1561
     19  C         11.4730    3.6270   25.3540 C.2    48  VAL48       0.2260
     20  O         10.4870    3.9980   24.6950 O.2    48  VAL48      -0.2867
     21  CB        12.8890    1.7630   24.4870 C.3    48  VAL48       0.0252
     22  CG1       11.5510    1.1740   23.9910 C.3    48  VAL48       0.0019
     23  CG2       13.9980    1.4750   23.5480 C.3    48  VAL48       0.0019
     24  N          8.4200    5.9550   23.5930 N.3    52  LEU52      -0.1245
     25  CA         7.0200    5.5830   23.5080 C.3    52  LEU52       0.1561
     26  C          6.1720    6.6130   24.2550 C.2    52  LEU52       0.2260
     27  O          5.0890    7.0030   23.7700 O.2    52  LEU52      -0.2867
     28  CB         6.8430    4.2000   24.1220 C.3    52  LEU52       0.0270
     29  CG         7.5460    3.0300   23.3990 C.3    52  LEU52       0.0019
     30  CD1        7.2890    1.6570   24.1570 C.3    52  LEU52       0.0001
     31  CD2        7.0570    2.9630   21.9780 C.3    52  LEU52       0.0001
     32  N         -1.6720  -17.9670   26.6010 N.3   175  PHE175     -0.1241
     33  CA        -0.4850  -17.6380   25.8410 C.3   175  PHE175      0.1605
     34  C          0.4930  -16.9560   26.8010 C.2   175  PHE175      0.2264
     35  O          1.6710  -17.3000   26.8320 O.2   175  PHE175     -0.2867
     36  CB        -0.8350  -16.7240   24.6800 C.3   175  PHE175      0.0534
     37  CG         0.3680  -16.2430   23.9150 C.ar  175  PHE175     -0.0203
     38  CD1        1.0840  -17.1140   23.0930 C.ar  175  PHE175     -0.0042
     39  CD2        0.7920  -14.9100   24.0170 C.ar  175  PHE175     -0.0042
     40  CE1        2.1970  -16.6750   22.3750 C.ar  175  PHE175     -0.0003
     41  CE2        1.9070  -14.4550   23.3030 C.ar  175  PHE175     -0.0003
     42  CZ         2.6150  -15.3360   22.4750 C.ar  175  PHE175     -0.0000
     43  N         16.9630   -9.7820   27.9800 N.3   188  TRP188     -0.1241
     44  CA        16.4590   -8.8510   26.9920 C.3   188  TRP188      0.1605
     45  C         17.3300   -7.6550   26.7620 C.2   188  TRP188      0.2264
     46  O         17.0780   -6.8550   25.8400 O.2   188  TRP188     -0.2867
     47  CB        15.0100   -8.4380   27.3400 C.3   188  TRP188      0.0550
     48  CG        14.1060   -9.6590   27.3310 C.ar  188  TRP188      0.0003
     49  CD1       14.0240  -10.6080   28.2900 C.ar  188  TRP188      0.0946
     50  CD2       13.2500  -10.0850   26.2720 C.ar  188  TRP188      0.0152
     51  NE1       13.1700  -11.5990   27.9070 N.ar  188  TRP188     -0.2442
     52  CE2       12.6770  -11.3090   26.6670 C.ar  188  TRP188      0.0810
     53  CE3       12.9020   -9.5440   25.0160 C.ar  188  TRP188      0.0012
     54  CZ2       11.7770  -12.0170   25.8600 C.ar  188  TRP188      0.0191
     55  CZ3       11.9950  -10.2530   24.2040 C.ar  188  TRP188      0.0001
     56  CH2       11.4500  -11.4780   24.6390 C.ar  188  TRP188      0.0015
     57  N         18.8750  -11.1680   17.8220 N.3   194  ILE194     -0.1245
     58  CA        18.1780   -9.9740   17.3680 C.3   194  ILE194      0.1561
     59  C         19.1640   -8.8910   16.9930 C.2   194  ILE194      0.2260
     60  O         18.9880   -8.1870   15.9800 O.2   194  ILE194     -0.2867
     61  CB        17.1910   -9.4930   18.4780 C.3   194  ILE194      0.0252
     62  CG1       16.0850  -10.5410   18.6410 C.3   194  ILE194      0.0019
     63  CG2       16.5470   -8.1340   18.1260 C.3   194  ILE194      0.0019
     64  CD1       15.0060  -10.4270   17.5640 C.3   194  ILE194      0.0001
     65  N         20.7250   -9.7440   13.7020 N.3   197  TYR197     -0.1227
     66  CA        19.7530   -9.5180   12.6210 C.3   197  TYR197      0.1736
     67  C         19.6990   -8.0250   12.2550 C.2   197  TYR197      0.2595
     68  O         19.8300   -7.6360   11.0810 O.2   197  TYR197     -0.2718
     69  CB        18.3670  -10.0000   13.0620 C.3   197  TYR197      0.0548
     70  CG        17.3330   -9.9010   11.9660 C.ar  197  TYR197     -0.0200
     71  CD1       17.3070  -10.8210   10.9330 C.ar  197  TYR197     -0.0009
     72  CD2       16.4470   -8.8100   11.9020 C.ar  197  TYR197     -0.0009
     73  CE1       16.4420  -10.6690    9.8380 C.ar  197  TYR197      0.0417
     74  CE2       15.5590   -8.6490   10.8070 C.ar  197  TYR197      0.0417
     75  CZ        15.5710   -9.5860    9.7850 C.ar  197  TYR197      0.1957
     76  OH        14.6920   -9.4540    8.7260 O.3   197  TYR197     -0.2866
     77  N         19.5460   -7.1740   13.2680 N.am  198  ILE198     -0.1980
     78  CA        19.4940   -5.7460   13.0450 C.3   198  ILE198      0.1595
     79  C         20.7760   -5.2260   12.3750 C.2   198  ILE198      0.2287
     80  O         20.7320   -4.3890   11.4680 O.2   198  ILE198     -0.2864
     81  CB        19.2750   -5.0190   14.3890 C.3   198  ILE198      0.0276
     82  CG1       17.8540   -5.3330   14.9190 C.3   198  ILE198      0.0022
     83  CG2       19.5870   -3.5320   14.2450 C.3   198  ILE198      0.0022
     84  CD1       17.5970   -4.7980   16.3380 C.3   198  ILE198      0.0001
     85  N         13.9840   -5.6410    2.5050 N.3   209  MET209     -0.1245
     86  CA        13.8330   -5.0390    3.8510 C.3   209  MET209      0.1570
     87  C         12.9620   -3.7510    3.7880 C.2   209  MET209      0.2261
     88  O         12.0390   -3.5380    4.6290 O.2   209  MET209     -0.2867
     89  CB        15.2250   -4.7440    4.4200 C.3   209  MET209      0.0387
     90  CG        15.2510   -3.9910    5.7630 C.3   209  MET209      0.0595
     91  SD        14.4820   -4.8300    7.1460 S.3   209  MET209     -0.1393
     92  CE        15.6560   -6.0990    7.6070 C.3   209  MET209      0.0692
     93  N          9.4520   -3.1260    5.6160 N.3   213  ILE213     -0.1245
     94  CA         9.1090   -1.9780    6.4700 C.3   213  ILE213      0.1561
     95  C          7.8390   -1.3320    5.9590 C.2   213  ILE213      0.2260
     96  O          6.9540   -0.9420    6.7340 O.2   213  ILE213     -0.2867
     97  CB        10.2000   -0.8990    6.4610 C.3   213  ILE213      0.0252
     98  CG1       11.5090   -1.4680    7.0640 C.3   213  ILE213      0.0019
     99  CG2        9.6850    0.3660    7.1860 C.3   213  ILE213      0.0019
    100  CD1       11.3630   -1.9820    8.5230 C.3   213  ILE213      0.0001
    101  N          4.8070   -3.2250    6.7430 N.3   216  THR216     -0.1203
    102  CA         4.5280   -3.1160    8.1760 C.3   216  THR216      0.1994
    103  C          3.8160   -1.7930    8.4760 C.2   216  THR216      0.2617
    104  O          2.8750   -1.7280    9.2780 O.2   216  THR216     -0.2717
    105  CB         5.8670   -3.2300    8.9690 C.3   216  THR216      0.1784
    106  OG1        6.4410   -4.5130    8.7190 O.3   216  THR216     -0.2211
    107  CG2        5.6620   -3.1160   10.4520 C.3   216  THR216      0.0376
    108  N          4.2840   -0.7130    7.8630 N.am  217  LEU217     -0.1979
    109  CA         3.6410    0.5600    8.0760 C.3   217  LEU217      0.1596
    110  C          2.2020    0.4780    7.5240 C.2   217  LEU217      0.2287
    111  O          1.2740    0.9130    8.1520 O.2   217  LEU217     -0.2864
    112  CB         4.4290    1.6650    7.3610 C.3   217  LEU217      0.0297
    113  CG         5.8110    1.9460    7.9300 C.3   217  LEU217      0.0022
    114  CD1        6.2450    3.3300    7.3940 C.3   217  LEU217      0.0001
    115  CD2        5.7830    1.9130    9.4970 C.3   217  LEU217      0.0001
    116  N         -4.7730   -0.5530   11.3810 N.3   223  MET223     -0.1245
    117  CA        -5.1470   -0.8030   12.7660 C.3   223  MET223      0.1570
    118  C         -5.9170    0.3650   13.4010 C.2   223  MET223      0.2261
    119  O         -5.7640    1.5250   13.0080 O.2   223  MET223     -0.2867
    120  CB        -3.9150   -1.0660   13.6510 C.3   223  MET223      0.0387
    121  CG        -3.0880   -2.2500   13.2190 C.3   223  MET223      0.0595
    122  SD        -1.5780   -2.4290   14.1900 S.3   223  MET223     -0.1393
    123  CE        -1.3780   -4.2470   14.0210 C.3   223  MET223      0.0692
    124  N         -3.7820    0.9280   19.2490 N.3   228  ILE228     -0.1245
    125  CA        -2.3670    1.1680   19.0900 C.3   228  ILE228      0.1561
    126  C         -1.9210    1.8740   20.3680 C.2   228  ILE228      0.2260
    127  O         -0.9480    1.4590   21.0090 O.2   228  ILE228     -0.2867
    128  CB        -2.0880    2.0770   17.8660 C.3   228  ILE228      0.0252
    129  CG1       -2.2330    1.2560   16.5930 C.3   228  ILE228      0.0019
    130  CG2       -0.6700    2.7270   17.9660 C.3   228  ILE228      0.0019
    131  CD1       -1.9980    2.0450   15.3230 C.3   228  ILE228      0.0001
    132  N         -1.8250   -0.5590   23.4280 N.3   231  ALA231     -0.1231
    133  CA        -0.6790   -1.4890   23.3920 C.3   231  ALA231      0.1694
    134  C          0.6500   -0.7590   23.6980 C.2   231  ALA231      0.2591
    135  O          1.4500   -1.2050   24.5220 O.2   231  ALA231     -0.2718
    136  CB        -0.6390   -2.1500   22.0500 C.3   231  ALA231      0.0304
    137  N          0.8680    0.3820   23.0560 N.am  232  VAL232     -0.1980
    138  CA         2.0560    1.1730   23.2960 C.3   232  VAL232      0.1595
    139  C          2.1440    1.4900   24.8280 C.2   232  VAL232      0.2287
    140  O          3.1840    1.3260   25.4640 O.2   232  VAL232     -0.2864
    141  CB         2.0040    2.4940   22.4590 C.3   232  VAL232      0.0276
    142  CG1        3.1160    3.4780   22.8890 C.3   232  VAL232      0.0022
    143  CG2        2.1870    2.1960   20.9580 C.3   232  VAL232      0.0022
    144  N          3.2490   -1.4270   26.9680 N.3   235  HIS235     -0.1241
    145  CA         4.7140   -1.6510   26.9740 C.3   235  HIS235      0.1621
    146  C          5.4130   -0.6190   27.8770 C.2   235  HIS235      0.2264
    147  O          6.3630   -0.9520   28.5470 O.2   235  HIS235     -0.2867
    148  CB         5.3040   -1.5490   25.5620 C.3   235  HIS235      0.0745
    149  CG         4.9650   -2.7020   24.6500 C.ar  235  HIS235      0.0817
    150  ND1        3.7400   -2.8270   24.0160 N.ar  235  HIS235     -0.2268
    151  CD2        5.7150   -3.7580   24.2350 C.ar  235  HIS235      0.1154
    152  CE1        3.7500   -3.9130   23.2500 C.ar  235  HIS235      0.1986
    153  NE2        4.9380   -4.4970   23.3680 N.ar  235  HIS235     -0.2212
    154  N          7.9940   -1.9220   30.8180 N.3   239  ILE239     -0.1245
    155  CA         9.3780   -1.5280   30.9340 C.3   239  ILE239      0.1561
    156  C          9.6620   -0.9710   32.3270 C.2   239  ILE239      0.2260
    157  O         10.6620   -1.3090   32.9300 O.2   239  ILE239     -0.2867
    158  CB         9.7130   -0.4640   29.8810 C.3   239  ILE239      0.0252
    159  CG1        9.5480   -1.0600   28.4820 C.3   239  ILE239      0.0019
    160  CG2       11.1050    0.1180   30.1500 C.3   239  ILE239      0.0019
    161  CD1        9.7350   -0.0090   27.3650 C.3   239  ILE239      0.0001
    162  N         -1.8500   -6.3120   22.6740 N.3   262  LEU262     -0.1245
    163  CA        -1.4330   -6.6030   21.3030 C.3   262  LEU262      0.1561
    164  C         -2.4990   -7.4230   20.5710 C.2   262  LEU262      0.2260
    165  O         -2.8100   -7.1670   19.4200 O.2   262  LEU262     -0.2867
    166  CB        -0.0910   -7.3730   21.2890 C.3   262  LEU262      0.0270
    167  CG         1.1380   -6.5210   21.6130 C.3   262  LEU262      0.0019
    168  CD1        2.3510   -7.3800   21.7270 C.3   262  LEU262      0.0001
    169  CD2        1.3380   -5.4880   20.5010 C.3   262  LEU262      0.0001
    170  N         -5.0060   -5.1590   19.4450 N.3   265  MET265     -0.1230
    171  CA        -4.5460   -4.3230   18.3550 C.3   265  MET265      0.1702
    172  C         -4.4430   -5.1380   17.0680 C.2   265  MET265      0.2592
    173  O         -4.7990   -4.6640   15.9830 O.2   265  MET265     -0.2718
    174  CB        -3.2000   -3.6990   18.6910 C.3   265  MET265      0.0401
    175  CG        -2.6480   -2.7400   17.6230 C.3   265  MET265      0.0596
    176  SD        -0.9470   -2.2040   18.1260 S.3   265  MET265     -0.1393
    177  CE         0.0810   -3.4800   17.3460 C.3   265  MET265      0.0692
    178  N         -3.9810   -6.3750   17.1540 N.am  266  ILE266     -0.1980
    179  CA        -3.8760   -7.1530   15.9230 C.3   266  ILE266      0.1595
    180  C         -5.2790   -7.5210   15.3970 C.2   266  ILE266      0.2287
    181  O         -5.4830   -7.6690   14.2040 O.2   266  ILE266     -0.2864
    182  CB        -3.0140   -8.4260   16.1650 C.3   266  ILE266      0.0276
    183  CG1       -1.5690   -7.9860   16.5100 C.3   266  ILE266      0.0022
    184  CG2       -3.1060   -9.3810   14.9500 C.3   266  ILE266      0.0022
    185  CD1       -0.7950   -9.0470   17.2090 C.3   266  ILE266      0.0001
    186  N         -1.6540   -8.4750    7.7460 N.3   274  PHE274     -0.1241
    187  CA        -0.9000   -8.7480    8.9510 C.3   274  PHE274      0.1605
    188  C         -0.2260  -10.1030    8.8140 C.2   274  PHE274      0.2264
    189  O          1.0060  -10.2160    8.9240 O.2   274  PHE274     -0.2867
    190  CB        -1.8080   -8.7160   10.1620 C.3   274  PHE274      0.0534
    191  CG        -1.0760   -8.7590   11.4640 C.ar  274  PHE274     -0.0203
    192  CD1       -0.6470   -9.9770   11.9960 C.ar  274  PHE274     -0.0042
    193  CD2       -0.7740   -7.5890   12.1290 C.ar  274  PHE274     -0.0042
    194  CE1        0.0760  -10.0250   13.1720 C.ar  274  PHE274     -0.0003
    195  CE2       -0.0360   -7.6170   13.3200 C.ar  274  PHE274     -0.0003
    196  CZ         0.3900   -8.8400   13.8410 C.ar  274  PHE274     -0.0000
    197  N         10.0080   -9.9090    5.6240 N.3   281  PHE281     -0.1241
    198  CA        11.3900   -9.4840    5.8560 C.3   281  PHE281      0.1605
    199  C         12.4500  -10.4900    5.3990 C.2   281  PHE281      0.2264
    200  O         12.2400  -11.6900    5.4220 O.2   281  PHE281     -0.2867
    201  CB        11.5870   -9.1630    7.3510 C.3   281  PHE281      0.0534
    202  CG        10.8740   -7.9380    7.7760 C.ar  281  PHE281     -0.0203
    203  CD1        9.5010   -7.9700    8.0560 C.ar  281  PHE281     -0.0042
    204  CD2       11.5250   -6.7300    7.7680 C.ar  281  PHE281     -0.0042
    205  CE1        8.8010   -6.7900    8.3120 C.ar  281  PHE281     -0.0003
    206  CE2       10.8420   -5.5460    8.0230 C.ar  281  PHE281     -0.0003
    207  CZ         9.4660   -5.5750    8.2950 C.ar  281  PHE281     -0.0000
    208  N         13.9390  -13.9070    7.8320 N.3   284  ASN284     -0.1240
    209  CA        13.1810  -14.1250    9.0450 C.3   284  ASN284      0.1653
    210  C         13.0740  -15.5660    9.4910 C.2   284  ASN284      0.2266
    211  O         13.0980  -15.8290   10.6760 O.2   284  ASN284     -0.2867
    212  CB        11.7780  -13.5290    8.9360 C.3   284  ASN284      0.1155
    213  CG        11.0280  -13.5870   10.2500 C.2   284  ASN284      0.2627
    214  OD1       11.5650  -13.1920   11.3030 O.2   284  ASN284     -0.2716
    215  ND2        9.7660  -14.0730   10.2050 N.am  284  ASN284     -0.0877
    216  N         16.0690  -16.3930   11.2910 N.3   287  LEU287     -0.1231
    217  CA        16.1150  -15.7260   12.5810 C.3   287  LEU287      0.1693
    218  C         15.2550  -16.4850   13.5780 C.2   287  LEU287      0.2591
    219  O         15.6810  -16.7010   14.6980 O.2   287  LEU287     -0.2718
    220  CB        15.6390  -14.2850   12.4840 C.3   287  LEU287      0.0284
    221  CG        15.4080  -13.5690   13.8380 C.3   287  LEU287      0.0019
    222  CD1       16.7220  -13.3690   14.5870 C.3   287  LEU287      0.0001
    223  CD2       14.6750  -12.1900   13.5880 C.3   287  LEU287      0.0001
    224  N         14.0560  -16.8850   13.1750 N.am  288  GLN288     -0.1979
    225  CA        13.2010  -17.6340   14.0820 C.3   288  GLN288      0.1601
    226  C         13.7940  -18.9890   14.5000 C.2   288  GLN288      0.2287
    227  O         13.5860  -19.3980   15.6530 O.2   288  GLN288     -0.2864
    228  CB        11.8100  -17.8410   13.4920 C.3   288  GLN288      0.0394
    229  CG        11.1010  -16.5320   13.0990 C.3   288  GLN288      0.0908
    230  CD        10.9810  -15.5400   14.2590 C.2   288  GLN288      0.2608
    231  OE1       10.4760  -15.8690   15.3210 O.2   288  GLN288     -0.2717
    232  NE2       11.4580  -14.3210   14.0440 N.am  288  GLN288     -0.0878
    233  N         16.3080  -18.1070   17.2000 N.3   291  LEU291     -0.1245
    234  CA        15.6320  -17.7290   18.4520 C.3   291  LEU291      0.1561
    235  C         15.1070  -19.0270   19.1270 C.2   291  LEU291      0.2260
    236  O         15.3180  -19.2520   20.3430 O.2   291  LEU291     -0.2867
    237  CB        14.4720  -16.7320   18.1610 C.3   291  LEU291      0.0270
    238  CG        14.9870  -15.3130   17.7770 C.3   291  LEU291      0.0019
    239  CD1       13.8820  -14.5130   17.1400 C.3   291  LEU291      0.0001
    240  CD2       15.5630  -14.5890   19.0430 C.3   291  LEU291      0.0001
    241  N         -0.0950  -20.2470   21.1830 N.3   307  PHE307     -0.1241
    242  CA        -0.0020  -19.1670   20.1760 C.3   307  PHE307      0.1605
    243  C         -1.0410  -19.4130   19.0600 C.2   307  PHE307      0.2264
    244  O         -1.7750  -18.5020   18.7030 O.2   307  PHE307     -0.2867
    245  CB         1.4250  -19.0770   19.5880 C.3   307  PHE307      0.0534
    246  CG         1.5540  -18.1320   18.4120 C.ar  307  PHE307     -0.0203
    247  CD1        1.4980  -16.7510   18.5860 C.ar  307  PHE307     -0.0042
    248  CD2        1.7300  -18.6460   17.0990 C.ar  307  PHE307     -0.0042
    249  CE1        1.6130  -15.8800   17.4690 C.ar  307  PHE307     -0.0003
    250  CE2        1.8420  -17.8130   15.9980 C.ar  307  PHE307     -0.0003
    251  CZ         1.7860  -16.4340   16.1680 C.ar  307  PHE307     -0.0000
@<TRIPOS>BOND
     1    85    86    1
     2    87    86    1
     3    87    88    2
     4    86    89    1
     5    89    90    1
     6   199   200    2
     7   199   198    1
     8    93    94    1
     9   197   198    1
    10    90    91    1
    11   198   201    1
    12    95    94    1
    13    95    96    2
    14    97    94    1
    15    97    98    1
    16    97    99    1
    17   101   102    1
    18    98   100    1
    19    91    92    1
    20   201   202    1
    21   112   113    1
    22   112   109    1
    23   114   113    1
    24   110   109    1
    25   110   111    2
    26   186   187    1
    27   204   202   ar
    28   204   206   ar
    29   202   203   ar
    30   208   209    1
    31   108   109    1
    32   108   103   am
    33   113   115    1
    34   206   207   ar
    35   203   205   ar
    36   102   103    1
    37   102   105    1
    38   207   205   ar
    39   103   104    2
    40   106   105    1
    41    76    75    1
    42   188   189    2
    43   188   187    1
    44   212   209    1
    45   212   213    1
    46   187   190    1
    47   105   107    1
    48   209   210    1
    49   210   211    2
    50    75    73   ar
    51    75    74   ar
    52    73    71   ar
    53   190   191    1
    54   215   213   am
    55   213   214    2
    56    74    72   ar
    57    71    70   ar
    58    68    67    2
    59   216   217    1
    60   116   117    1
    61   191   192   ar
    62   191   193   ar
    63    80    79    2
    64     6     5    1
    65     6     8    1
    66     5     7    1
    67     5     2    1
    68     1     2    1
    69    72    70   ar
    70    70    69    1
    71   192   194   ar
    72   193   195   ar
    73    67    66    1
    74    67    77   am
    75    79    78    1
    76     2     3    1
    77   220   217    1
    78   220   221    1
    79   217   218    1
    80    66    69    1
    81    66    65    1
    82     3     4    2
    83   117   118    1
    84   117   120    1
    85   119   118    2
    86    78    77    1
    87    78    81    1
    88   229   228    1
    89   229   230    1
    90   194   196   ar
    91   224   218   am
    92   224   225    1
    93   121   120    1
    94   121   122    1
    95   195   196   ar
    96   228   225    1
    97   218   219    2
    98   223   221    1
    99   221   222    1
   100   123   122    1
   101   232   230   am
   102   225   226    1
   103   181   180    2
   104    83    81    1
   105   230   231    2
   106    81    82    1
   107   226   227    2
   108    16    14    1
   109    82    84    1
   110   184   182    1
   111   131   129    1
   112   180   179    1
   113    14    13    1
   114   179   182    1
   115   179   178    1
   116    60    59    2
   117   173   172    2
   118   250   251   ar
   119   250   248   ar
   120   182   183    1
   121   251   249   ar
   122    13    15    1
   123    13    10    1
   124   183   185    1
   125   129   128    1
   126     9    10    1
   127    59    58    1
   128   172   178   am
   129   172   171    1
   130   248   246   ar
   131   239   238    1
   132    10    11    1
   133   233   234    1
   134   177   176    1
   135    58    57    1
   136    58    61    1
   137   249   247   ar
   138    64    62    1
   139   175   176    1
   140   175   174    1
   141    11    12    2
   142   238   237    1
   143   238   240    1
   144   128   130    1
   145   128   125    1
   146    63    61    1
   147   237   234    1
   148   171   174    1
   149   171   170    1
   150   246   247   ar
   151   246   245    1
   152   234   235    1
   153    61    62    1
   154   244   243    2
   155   243   242    1
   156   125   124    1
   157   125   126    1
   158   235   236    2
   159   165   164    2
   160   245   242    1
   161   242   241    1
   162   126   127    2
   163   169   167    1
   164   164   163    1
   165   143   141    1
   166   166   163    1
   167   166   167    1
   168   163   162    1
   169   167   168    1
   170    31    29    1
   171   136   133    1
   172    40    42   ar
   173    40    38   ar
   174   141   142    1
   175   141   138    1
   176    42    41   ar
   177   137   138    1
   178   137   134   am
   179    38    37   ar
   180   152   153   ar
   181   152   150   ar
   182   138   139    1
   183    41    39   ar
   184   153   151   ar
   185   133   132    1
   186   133   134    1
   187    29    28    1
   188    29    30    1
   189    25    24    1
   190    25    28    1
   191    25    26    1
   192    23    21    1
   193   134   135    2
   194    27    26    2
   195    37    39   ar
   196    37    36    1
   197    22    21    1
   198   150   149   ar
   199    55    56   ar
   200    55    53   ar
   201   151   149   ar
   202    21    18    1
   203    56    54   ar
   204   149   148    1
   205    18    19    1
   206    18    17    1
   207    36    33    1
   208    20    19    2
   209   139   140    2
   210    53    50   ar
   211   148   145    1
   212    46    45    2
   213    33    32    1
   214    33    34    1
   215    54    52   ar
   216    50    52   ar
   217    50    48   ar
   218    52    51   ar
   219    45    44    1
   220    34    35    2
   221   144   145    1
   222   145   146    1
   223    44    47    1
   224    44    43    1
   225    48    47    1
   226    48    49   ar
   227   161   159    1
   228   146   147    2
   229    51    49   ar
   230   159   158    1
   231   158   160    1
   232   158   155    1
   233   154   155    1
   234   155   156    1
   235   156   157    2
