@<TRIPOS>MOLECULE
tmp/2c9eA07.pdb
 181 169 0 0 0
SMALL
GASTEIGER

@<TRIPOS>ATOM
      1  N          8.4200    5.9550   23.5930 N.3    52  LEU52      -0.1245
      2  CA         7.0200    5.5830   23.5080 C.3    52  LEU52       0.1561
      3  C          6.1720    6.6130   24.2550 C.2    52  LEU52       0.2260
      4  O          5.0890    7.0030   23.7700 O.2    52  LEU52      -0.2867
      5  CB         6.8430    4.2000   24.1220 C.3    52  LEU52       0.0270
      6  CG         7.5460    3.0300   23.3990 C.3    52  LEU52       0.0019
      7  CD1        7.2890    1.6570   24.1570 C.3    52  LEU52       0.0001
      8  CD2        7.0570    2.9630   21.9780 C.3    52  LEU52       0.0001
      9  N          0.2650   11.6520   13.6340 N.3    63  VAL63      -0.1231
     10  CA         1.1240   10.4520   13.7210 C.3    63  VAL63       0.1692
     11  C          0.7880    9.6260   12.4890 C.2    63  VAL63       0.2591
     12  O          1.6470    9.0950   11.7760 O.2    63  VAL63      -0.2718
     13  CB         0.8010    9.5810   15.0020 C.3    63  VAL63       0.0266
     14  CG1        1.3630    8.1630   14.8510 C.3    63  VAL63       0.0020
     15  CG2        1.4110   10.2190   16.2450 C.3    63  VAL63       0.0020
     16  N         -0.4980    9.5330   12.2340 N.am   64  ARG64      -0.1980
     17  CA        -0.9750    8.7620   11.1160 C.3    64  ARG64       0.1597
     18  C         -0.4940    9.3520    9.8020 C.2    64  ARG64       0.2287
     19  O          0.0050    8.6280    8.9200 O.2    64  ARG64      -0.2864
     20  CB        -2.5020    8.6990   11.1800 C.3    64  ARG64       0.0334
     21  CG        -3.1010    7.9770   10.0200 C.3    64  ARG64       0.0492
     22  CD        -4.6360    7.9730   10.0130 C.3    64  ARG64       0.2205
     23  NE        -5.0010    6.9330    9.0650 N.pl3  64  ARG64      -0.0865
     24  CZ        -5.0610    5.6400    9.3680 C.cat  64  ARG64       0.5346
     25  NH1       -4.8220    5.2190   10.6060 N.pl3  64  ARG64       0.1354
     26  NH2       -5.2660    4.7620    8.4000 N.pl3  64  ARG64       0.1354
     27  N          3.2950    8.6210    9.3120 N.3    67  VAL67      -0.1245
     28  CA         3.5210    7.2340    8.9300 C.3    67  VAL67       0.1561
     29  C          3.0810    7.0700    7.4510 C.2    67  VAL67       0.2260
     30  O          3.7840    6.4450    6.6450 O.2    67  VAL67      -0.2867
     31  CB         2.7090    6.2570    9.8620 C.3    67  VAL67       0.0252
     32  CG1        2.7970    4.8320    9.3460 C.3    67  VAL67       0.0019
     33  CG2        3.3040    6.2500   11.2570 C.3    67  VAL67       0.0019
     34  N          4.8070   -3.2250    6.7430 N.3   216  THR216     -0.1203
     35  CA         4.5280   -3.1160    8.1760 C.3   216  THR216      0.1994
     36  C          3.8160   -1.7930    8.4760 C.2   216  THR216      0.2617
     37  O          2.8750   -1.7280    9.2780 O.2   216  THR216     -0.2717
     38  CB         5.8670   -3.2300    8.9690 C.3   216  THR216      0.1784
     39  OG1        6.4410   -4.5130    8.7190 O.3   216  THR216     -0.2211
     40  CG2        5.6620   -3.1160   10.4520 C.3   216  THR216      0.0376
     41  N          4.2840   -0.7130    7.8630 N.am  217  LEU217     -0.1979
     42  CA         3.6410    0.5600    8.0760 C.3   217  LEU217      0.1596
     43  C          2.2020    0.4780    7.5240 C.2   217  LEU217      0.2287
     44  O          1.2740    0.9130    8.1520 O.2   217  LEU217     -0.2864
     45  CB         4.4290    1.6650    7.3610 C.3   217  LEU217      0.0297
     46  CG         5.8110    1.9460    7.9300 C.3   217  LEU217      0.0022
     47  CD1        6.2450    3.3300    7.3940 C.3   217  LEU217      0.0001
     48  CD2        5.7830    1.9130    9.4970 C.3   217  LEU217      0.0001
     49  N          0.3100   -2.1540    7.1630 N.3   219  VAL219     -0.1231
     50  CA        -0.5280   -2.8790    8.1470 C.3   219  VAL219      0.1692
     51  C         -0.8830   -1.9880    9.3450 C.2   219  VAL219      0.2592
     52  O         -2.0230   -2.0170    9.8490 O.2   219  VAL219     -0.2718
     53  CB         0.1770   -4.1440    8.6780 C.3   219  VAL219      0.0266
     54  CG1       -0.4120   -4.5820    9.9670 C.3   219  VAL219      0.0020
     55  CG2        0.0420   -5.2490    7.6770 C.3   219  VAL219      0.0020
     56  N          0.0800   -1.1760    9.7940 N.am  220  ALA220     -0.1966
     57  CA        -0.1770   -0.3200   10.9230 C.3   220  ALA220      0.1728
     58  C         -1.2880    0.6890   10.5990 C.2   220  ALA220      0.2616
     59  O         -2.0990    1.0120   11.4590 O.2   220  ALA220     -0.2715
     60  CB         1.0860    0.4030   11.3430 C.3   220  ALA220      0.0334
     61  N         -1.3310    1.1910    9.3660 N.am  221  LEU221     -0.1977
     62  CA        -2.3700    2.1800    9.0380 C.3   221  LEU221      0.1596
     63  C         -3.7930    1.5940    9.0340 C.2   221  LEU221      0.2287
     64  O         -4.7490    2.3400    9.1470 O.2   221  LEU221     -0.2864
     65  CB        -2.0710    2.8740    7.7090 C.3   221  LEU221      0.0297
     66  CG        -1.2370    4.1760    7.6160 C.3   221  LEU221      0.0022
     67  CD1       -1.0960    4.8910    8.9120 C.3   221  LEU221      0.0001
     68  CD2        0.0850    3.8650    7.0280 C.3   221  LEU221      0.0001
     69  N         -4.7730   -0.5530   11.3810 N.3   223  MET223     -0.1245
     70  CA        -5.1470   -0.8030   12.7660 C.3   223  MET223      0.1570
     71  C         -5.9170    0.3650   13.4010 C.2   223  MET223      0.2261
     72  O         -5.7640    1.5250   13.0080 O.2   223  MET223     -0.2867
     73  CB        -3.9150   -1.0660   13.6510 C.3   223  MET223      0.0387
     74  CG        -3.0880   -2.2500   13.2190 C.3   223  MET223      0.0595
     75  SD        -1.5780   -2.4290   14.1900 S.3   223  MET223     -0.1393
     76  CE        -1.3780   -4.2470   14.0210 C.3   223  MET223      0.0692
     77  N         -6.3510    3.0790   15.8230 N.3   225  GLN225     -0.1245
     78  CA        -5.4110    3.8720   16.5730 C.3   225  GLN225      0.1566
     79  C         -5.5570    3.8570   18.1080 C.2   225  GLN225      0.2260
     80  O         -4.5480    3.9830   18.8010 O.2   225  GLN225     -0.2867
     81  CB        -5.3770    5.3210   16.0320 C.3   225  GLN225      0.0367
     82  CG        -4.0590    6.0940   16.3950 C.3   225  GLN225      0.0905
     83  CD        -2.8120    5.5330   15.6930 C.2   225  GLN225      0.2608
     84  OE1       -2.9400    4.8030   14.7050 O.2   225  GLN225     -0.2717
     85  NE2       -1.6010    5.8910   16.1890 N.am  225  GLN225     -0.0878
     86  N         -3.7820    0.9280   19.2490 N.3   228  ILE228     -0.1245
     87  CA        -2.3670    1.1680   19.0900 C.3   228  ILE228      0.1561
     88  C         -1.9210    1.8740   20.3680 C.2   228  ILE228      0.2260
     89  O         -0.9480    1.4590   21.0090 O.2   228  ILE228     -0.2867
     90  CB        -2.0880    2.0770   17.8660 C.3   228  ILE228      0.0252
     91  CG1       -2.2330    1.2560   16.5930 C.3   228  ILE228      0.0019
     92  CG2       -0.6700    2.7270   17.9660 C.3   228  ILE228      0.0019
     93  CD1       -1.9980    2.0450   15.3230 C.3   228  ILE228      0.0001
     94  N          0.8680    0.3820   23.0560 N.3   232  VAL232     -0.1245
     95  CA         2.0560    1.1730   23.2960 C.3   232  VAL232      0.1561
     96  C          2.1440    1.4900   24.8280 C.2   232  VAL232      0.2260
     97  O          3.1840    1.3260   25.4640 O.2   232  VAL232     -0.2867
     98  CB         2.0040    2.4940   22.4590 C.3   232  VAL232      0.0252
     99  CG1        3.1160    3.4780   22.8890 C.3   232  VAL232      0.0019
    100  CG2        2.1870    2.1960   20.9580 C.3   232  VAL232      0.0019
    101  N         -5.0060   -5.1590   19.4450 N.3   265  MET265     -0.1245
    102  CA        -4.5460   -4.3230   18.3550 C.3   265  MET265      0.1570
    103  C         -4.4430   -5.1380   17.0680 C.2   265  MET265      0.2261
    104  O         -4.7990   -4.6640   15.9830 O.2   265  MET265     -0.2867
    105  CB        -3.2000   -3.6990   18.6910 C.3   265  MET265      0.0387
    106  CG        -2.6480   -2.7400   17.6230 C.3   265  MET265      0.0595
    107  SD        -0.9470   -2.2040   18.1260 S.3   265  MET265     -0.1393
    108  CE         0.0810   -3.4800   17.3460 C.3   265  MET265      0.0692
    109  N         -1.6540   -8.4750    7.7460 N.3   274  PHE274     -0.1227
    110  CA        -0.9000   -8.7480    8.9510 C.3   274  PHE274      0.1736
    111  C         -0.2260  -10.1030    8.8140 C.2   274  PHE274      0.2595
    112  O          1.0060  -10.2160    8.9240 O.2   274  PHE274     -0.2718
    113  CB        -1.8080   -8.7160   10.1620 C.3   274  PHE274      0.0547
    114  CG        -1.0760   -8.7590   11.4640 C.ar  274  PHE274     -0.0202
    115  CD1       -0.6470   -9.9770   11.9960 C.ar  274  PHE274     -0.0042
    116  CD2       -0.7740   -7.5890   12.1290 C.ar  274  PHE274     -0.0042
    117  CE1        0.0760  -10.0250   13.1720 C.ar  274  PHE274     -0.0003
    118  CE2       -0.0360   -7.6170   13.3200 C.ar  274  PHE274     -0.0003
    119  CZ         0.3900   -8.8400   13.8410 C.ar  274  PHE274     -0.0000
    120  N         -1.0340  -11.1130    8.5290 N.am  275  LYS275     -0.1980
    121  CA        -0.5300  -12.4560    8.3560 C.3   275  LYS275      0.1596
    122  C          0.6910  -12.5130    7.4590 C.2   275  LYS275      0.2287
    123  O          1.6680  -13.2240    7.7550 O.2   275  LYS275     -0.2864
    124  CB        -1.5710  -13.3590    7.7280 C.3   275  LYS275      0.0298
    125  CG        -1.2040  -14.8230    7.8980 C.3   275  LYS275      0.0038
    126  CD        -2.0750  -15.7020    7.0080 C.3   275  LYS275      0.0206
    127  CE        -1.9320  -17.1940    7.3080 C.3   275  LYS275      0.1093
    128  NZ        -3.3170  -17.7360    7.5970 N.3   275  LYS275     -0.1314
    129  N          3.0420  -10.4170    6.9330 N.3   277  LEU277     -0.1231
    130  CA         4.3160   -9.8770    7.3950 C.3   277  LEU277      0.1693
    131  C          5.2820  -11.0140    7.7620 C.2   277  LEU277      0.2591
    132  O          6.5210  -10.8640    7.6720 O.2   277  LEU277     -0.2718
    133  CB         4.0970   -8.9400    8.5780 C.3   277  LEU277      0.0284
    134  CG         3.2650   -7.6920    8.2460 C.3   277  LEU277      0.0019
    135  CD1        3.2680   -6.7090    9.3870 C.3   277  LEU277      0.0001
    136  CD2        3.8500   -7.0350    7.0280 C.3   277  LEU277      0.0001
    137  N          4.7170  -12.1610    8.1360 N.am  278  LEU278     -0.1980
    138  CA         5.5360  -13.2940    8.4750 C.3   278  LEU278      0.1596
    139  C          6.5800  -13.5430    7.3900 C.2   278  LEU278      0.2287
    140  O          7.7390  -13.8790    7.6970 O.2   278  LEU278     -0.2864
    141  CB         4.6690  -14.5400    8.6780 C.3   278  LEU278      0.0297
    142  CG         5.2640  -15.8280    9.2640 C.3   278  LEU278      0.0022
    143  CD1        5.8970  -16.6420    8.2230 C.3   278  LEU278      0.0001
    144  CD2        6.2690  -15.5010   10.3290 C.3   278  LEU278      0.0001
    145  N          3.7470  -22.6820   21.4110 N.3   304  TYR304     -0.1241
    146  CA         3.2230  -22.5200   20.0590 C.3   304  TYR304      0.1605
    147  C          1.7570  -22.9650   20.0160 C.2   304  TYR304      0.2264
    148  O          0.9230  -22.3500   19.3160 O.2   304  TYR304     -0.2867
    149  CB         4.0110  -23.3610   19.0750 C.3   304  TYR304      0.0534
    150  CG         3.4760  -23.2900   17.6500 C.ar  304  TYR304     -0.0201
    151  CD1        3.6560  -22.1400   16.8660 C.ar  304  TYR304     -0.0009
    152  CD2        2.7900  -24.3810   17.0710 C.ar  304  TYR304     -0.0009
    153  CE1        3.1800  -22.0920   15.5590 C.ar  304  TYR304      0.0417
    154  CE2        2.3000  -24.3230   15.7670 C.ar  304  TYR304      0.0417
    155  CZ         2.5010  -23.1850   15.0160 C.ar  304  TYR304      0.1957
    156  OH         2.0630  -23.1230   13.6990 O.3   304  TYR304     -0.2866
    157  N         -0.0950  -20.2470   21.1830 N.3   307  PHE307     -0.1227
    158  CA        -0.0020  -19.1670   20.1760 C.3   307  PHE307      0.1736
    159  C         -1.0410  -19.4130   19.0600 C.2   307  PHE307      0.2595
    160  O         -1.7750  -18.5020   18.7030 O.2   307  PHE307     -0.2718
    161  CB         1.4250  -19.0770   19.5880 C.3   307  PHE307      0.0547
    162  CG         1.5540  -18.1320   18.4120 C.ar  307  PHE307     -0.0202
    163  CD1        1.4980  -16.7510   18.5860 C.ar  307  PHE307     -0.0042
    164  CD2        1.7300  -18.6460   17.0990 C.ar  307  PHE307     -0.0042
    165  CE1        1.6130  -15.8800   17.4690 C.ar  307  PHE307     -0.0003
    166  CE2        1.8420  -17.8130   15.9980 C.ar  307  PHE307     -0.0003
    167  CZ         1.7860  -16.4340   16.1680 C.ar  307  PHE307     -0.0000
    168  N         -1.1080  -20.6390   18.5220 N.am  308  VAL308     -0.1980
    169  CA        -2.1110  -20.9370   17.5060 C.3   308  VAL308      0.1595
    170  C         -3.5190  -20.6780   18.0830 C.2   308  VAL308      0.2287
    171  O         -4.3620  -20.0910   17.4310 O.2   308  VAL308     -0.2864
    172  CB        -2.0590  -22.4280   16.9780 C.3   308  VAL308      0.0276
    173  CG1       -3.1440  -22.6250   15.8860 C.3   308  VAL308      0.0022
    174  CG2       -0.6900  -22.7460   16.3370 C.3   308  VAL308      0.0022
    175  N         -4.1390  -16.9500   18.0210 N.3   311  THR311     -0.1218
    176  CA        -4.3040  -16.4900   16.6480 C.3   311  THR311      0.1862
    177  C         -5.7660  -16.6580   16.1590 C.2   311  THR311      0.2287
    178  O         -6.3320  -15.7480   15.5310 O.2   311  THR311     -0.2866
    179  CB        -3.3540  -17.2570   15.7410 C.3   311  THR311      0.1770
    180  OG1       -2.0360  -16.6930   15.8680 O.3   311  THR311     -0.2211
    181  CG2       -3.7930  -17.1790   14.3260 C.3   311  THR311      0.0375
@<TRIPOS>BOND
     1    30    29    2
     2    34    35    1
     3   129   130    1
     4   126   127    1
     5   126   125    1
     6   136   134    1
     7    68    66    1
     8    49    50    1
     9   127   128    1
    10    45    46    1
    11    45    42    1
    12   139   140    2
    13   139   138    1
    14    47    46    1
    15   130   131    1
    16   130   133    1
    17    29    28    1
    18   122   123    2
    19   122   121    1
    20    43    42    1
    21    43    44    2
    22    66    65    1
    23    66    67    1
    24   132   131    2
    25    55    53    1
    26    65    62    1
    27   124   125    1
    28   124   121    1
    29   109   110    1
    30   131   137   am
    31    41    42    1
    32    41    36   am
    33    46    48    1
    34   137   138    1
    35    50    53    1
    36    50    51    1
    37    35    36    1
    38    35    38    1
    39   143   142    1
    40   134   133    1
    41   134   135    1
    42   121   120    1
    43    26    24    1
    44   138   141    1
    45    36    37    2
    46   120   111   am
    47    53    54    1
    48   141   142    1
    49    39    38    1
    50   111   112    2
    51   111   110    1
    52    19    18    2
    53    28    27    1
    54    28    31    1
    55   110   113    1
    56    38    40    1
    57    63    62    1
    58    63    64    2
    59    62    61    1
    60    23    24    2
    61    23    22    1
    62   142   144    1
    63    51    56   am
    64    51    52    2
    65    32    31    1
    66    61    58   am
    67    24    25    1
    68    56    57    1
    69    18    17    1
    70    31    33    1
    71    22    21    1
    72    21    20    1
    73   113   114    1
    74    58    57    1
    75    58    59    2
    76    57    60    1
    77    17    20    1
    78    17    16    1
    79    69    70    1
    80   114   115   ar
    81   114   116   ar
    82    12    11    2
    83   115   117   ar
    84   116   118   ar
    85    16    11   am
    86    11    10    1
    87    70    71    1
    88    70    73    1
    89    72    71    2
    90   117   119   ar
    91    74    73    1
    92    74    75    1
    93   118   119   ar
    94     9    10    1
    95   156   155    1
    96    10    13    1
    97    76    75    1
    98   181   179    1
    99    84    83    2
   100    14    13    1
   101    13    15    1
   102   155   153   ar
   103   155   154   ar
   104    93    91    1
   105   178   177    2
   106   153   151   ar
   107    83    85   am
   108    83    82    1
   109   179   180    1
   110   179   176    1
   111   154   152   ar
   112    77    78    1
   113   173   172    1
   114   104   103    2
   115   166   167   ar
   116   166   164   ar
   117    81    82    1
   118    81    78    1
   119   177   176    1
   120   167   165   ar
   121   174   172    1
   122    78    79    1
   123    91    90    1
   124   176   175    1
   125   151   150   ar
   126   172   169    1
   127   103   102    1
   128   152   150   ar
   129   164   162   ar
   130   108   107    1
   131   171   170    2
   132   165   163   ar
   133   169   170    1
   134   169   168    1
   135   106   107    1
   136   106   105    1
   137   150   149    1
   138    90    92    1
   139    90    87    1
   140    79    80    2
   141   102   105    1
   142   102   101    1
   143   162   163   ar
   144   162   161    1
   145   168   159   am
   146   160   159    2
   147   159   158    1
   148   149   146    1
   149    87    86    1
   150    87    88    1
   151   148   147    2
   152   161   158    1
   153   147   146    1
   154   146   145    1
   155   158   157    1
   156    88    89    2
   157   100    98    1
   158     8     6    1
   159    98    99    1
   160    98    95    1
   161    94    95    1
   162    95    96    1
   163     6     5    1
   164     6     7    1
   165     2     1    1
   166     2     5    1
   167     2     3    1
   168     4     3    2
   169    96    97    2
