@<TRIPOS>MOLECULE
tmp/2c9eA09.pdb
 218 206 0 0 0
SMALL
GASTEIGER

@<TRIPOS>ATOM
      1  N         13.9080    3.7480   25.4520 N.3    48  VAL48      -0.1245
      2  CA        12.7840    3.2510   24.6550 C.3    48  VAL48       0.1561
      3  C         11.4730    3.6270   25.3540 C.2    48  VAL48       0.2260
      4  O         10.4870    3.9980   24.6950 O.2    48  VAL48      -0.2867
      5  CB        12.8890    1.7630   24.4870 C.3    48  VAL48       0.0252
      6  CG1       11.5510    1.1740   23.9910 C.3    48  VAL48       0.0019
      7  CG2       13.9980    1.4750   23.5480 C.3    48  VAL48       0.0019
      8  N         10.8610    7.1380   24.5450 N.3    51  LEU51      -0.1231
      9  CA        10.4360    7.2750   23.1470 C.3    51  LEU51       0.1693
     10  C          8.8940    7.0210   22.9630 C.2    51  LEU51       0.2591
     11  O          8.1580    7.7450   22.2250 O.2    51  LEU51      -0.2718
     12  CB        11.2560    6.2890   22.3090 C.3    51  LEU51       0.0284
     13  CG        11.0030    6.2780   20.8050 C.3    51  LEU51       0.0019
     14  CD1       11.5400    7.5720   20.1870 C.3    51  LEU51       0.0001
     15  CD2       11.6790    5.0070   20.1870 C.3    51  LEU51       0.0001
     16  N          8.4200    5.9550   23.5930 N.am   52  LEU52      -0.1980
     17  CA         7.0200    5.5830   23.5080 C.3    52  LEU52       0.1596
     18  C          6.1720    6.6130   24.2550 C.2    52  LEU52       0.2287
     19  O          5.0890    7.0030   23.7700 O.2    52  LEU52      -0.2864
     20  CB         6.8430    4.2000   24.1220 C.3    52  LEU52       0.0297
     21  CG         7.5460    3.0300   23.3990 C.3    52  LEU52       0.0022
     22  CD1        7.2890    1.6570   24.1570 C.3    52  LEU52       0.0001
     23  CD2        7.0570    2.9630   21.9780 C.3    52  LEU52       0.0001
     24  N         -1.6720  -17.9670   26.6010 N.3   175  PHE175     -0.1241
     25  CA        -0.4850  -17.6380   25.8410 C.3   175  PHE175      0.1605
     26  C          0.4930  -16.9560   26.8010 C.2   175  PHE175      0.2264
     27  O          1.6710  -17.3000   26.8320 O.2   175  PHE175     -0.2867
     28  CB        -0.8350  -16.7240   24.6800 C.3   175  PHE175      0.0534
     29  CG         0.3680  -16.2430   23.9150 C.ar  175  PHE175     -0.0203
     30  CD1        1.0840  -17.1140   23.0930 C.ar  175  PHE175     -0.0042
     31  CD2        0.7920  -14.9100   24.0170 C.ar  175  PHE175     -0.0042
     32  CE1        2.1970  -16.6750   22.3750 C.ar  175  PHE175     -0.0003
     33  CE2        1.9070  -14.4550   23.3030 C.ar  175  PHE175     -0.0003
     34  CZ         2.6150  -15.3360   22.4750 C.ar  175  PHE175     -0.0000
     35  N          4.2290  -18.4910   27.7320 N.3   179  THR179     -0.1218
     36  CA         5.4130  -17.7630   27.2460 C.3   179  THR179      0.1862
     37  C          6.2230  -17.0920   28.3570 C.2   179  THR179      0.2287
     38  O          7.4390  -16.9490   28.2180 O.2   179  THR179     -0.2866
     39  CB         5.0290  -16.7230   26.1690 C.3   179  THR179      0.1770
     40  OG1        3.9570  -15.8790   26.6370 O.3   179  THR179     -0.2211
     41  CG2        4.6010  -17.4180   24.9080 C.3   179  THR179      0.0375
     42  N          9.3820  -18.7790   29.2170 N.3   182  ILE182     -0.1231
     43  CA        10.3700  -18.7340   28.1390 C.3   182  ILE182      0.1692
     44  C         10.9960  -17.3190   28.1970 C.2   182  ILE182      0.2591
     45  O         12.2150  -17.1520   28.1390 O.2   182  ILE182     -0.2718
     46  CB         9.6720  -18.9480   26.7710 C.3   182  ILE182      0.0266
     47  CG1        8.9710  -20.3010   26.8000 C.3   182  ILE182      0.0019
     48  CG2       10.6690  -18.8150   25.6550 C.3   182  ILE182      0.0020
     49  CD1        8.3190  -20.7550   25.5030 C.3   182  ILE182      0.0001
     50  N         10.1360  -16.3080   28.3060 N.am  183  MET183     -0.1979
     51  CA        10.5600  -14.9210   28.4130 C.3   183  MET183      0.1605
     52  C         11.5180  -14.7510   29.5790 C.2   183  MET183      0.2287
     53  O         12.6030  -14.1590   29.4030 O.2   183  MET183     -0.2864
     54  CB         9.3200  -14.0180   28.6060 C.3   183  MET183      0.0413
     55  CG         9.5650  -12.5140   28.7080 C.3   183  MET183      0.0598
     56  SD        10.2910  -12.0440   30.2640 S.3   183  MET183     -0.1393
     57  CE         8.8180  -12.2290   31.3070 C.3   183  MET183      0.0692
     58  N         15.3830  -15.3640   29.2600 N.3   186  LEU186     -0.1245
     59  CA        16.2470  -14.6450   28.3140 C.3   186  LEU186      0.1561
     60  C         16.7600  -13.3600   28.8780 C.2   186  LEU186      0.2260
     61  O         16.1720  -12.8280   29.8080 O.2   186  LEU186     -0.2867
     62  CB        15.4750  -14.3690   27.0200 C.3   186  LEU186      0.0270
     63  CG        14.9250  -15.6230   26.2960 C.3   186  LEU186      0.0019
     64  CD1       13.8860  -15.1870   25.2310 C.3   186  LEU186      0.0001
     65  CD2       16.1140  -16.3990   25.6420 C.3   186  LEU186      0.0001
     66  N         16.9630   -9.7820   27.9800 N.3   188  TRP188     -0.1241
     67  CA        16.4590   -8.8510   26.9920 C.3   188  TRP188      0.1605
     68  C         17.3300   -7.6550   26.7620 C.2   188  TRP188      0.2264
     69  O         17.0780   -6.8550   25.8400 O.2   188  TRP188     -0.2867
     70  CB        15.0100   -8.4380   27.3400 C.3   188  TRP188      0.0550
     71  CG        14.1060   -9.6590   27.3310 C.ar  188  TRP188      0.0003
     72  CD1       14.0240  -10.6080   28.2900 C.ar  188  TRP188      0.0946
     73  CD2       13.2500  -10.0850   26.2720 C.ar  188  TRP188      0.0152
     74  NE1       13.1700  -11.5990   27.9070 N.ar  188  TRP188     -0.2442
     75  CE2       12.6770  -11.3090   26.6670 C.ar  188  TRP188      0.0810
     76  CE3       12.9020   -9.5440   25.0160 C.ar  188  TRP188      0.0012
     77  CZ2       11.7770  -12.0170   25.8600 C.ar  188  TRP188      0.0191
     78  CZ3       11.9950  -10.2530   24.2040 C.ar  188  TRP188      0.0001
     79  CH2       11.4500  -11.4780   24.6390 C.ar  188  TRP188      0.0015
     80  N          4.8070   -3.2250    6.7430 N.3   216  THR216     -0.1218
     81  CA         4.5280   -3.1160    8.1760 C.3   216  THR216      0.1862
     82  C          3.8160   -1.7930    8.4760 C.2   216  THR216      0.2287
     83  O          2.8750   -1.7280    9.2780 O.2   216  THR216     -0.2866
     84  CB         5.8670   -3.2300    8.9690 C.3   216  THR216      0.1770
     85  OG1        6.4410   -4.5130    8.7190 O.3   216  THR216     -0.2211
     86  CG2        5.6620   -3.1160   10.4520 C.3   216  THR216      0.0375
     87  N          0.8680    0.3820   23.0560 N.3   232  VAL232     -0.1245
     88  CA         2.0560    1.1730   23.2960 C.3   232  VAL232      0.1561
     89  C          2.1440    1.4900   24.8280 C.2   232  VAL232      0.2260
     90  O          3.1840    1.3260   25.4640 O.2   232  VAL232     -0.2867
     91  CB         2.0040    2.4940   22.4590 C.3   232  VAL232      0.0252
     92  CG1        3.1160    3.4780   22.8890 C.3   232  VAL232      0.0019
     93  CG2        2.1870    2.1960   20.9580 C.3   232  VAL232      0.0019
     94  N          3.3270   -8.2320   31.6740 N.3   255  PHE255     -0.1241
     95  CA         3.4930   -9.1200   30.5230 C.3   255  PHE255      0.1605
     96  C          2.1190   -9.5450   29.9430 C.2   255  PHE255      0.2264
     97  O          1.8880   -9.5130   28.7320 O.2   255  PHE255     -0.2867
     98  CB         4.3190  -10.3470   30.9610 C.3   255  PHE255      0.0534
     99  CG         4.6970  -11.2660   29.8390 C.ar  255  PHE255     -0.0203
    100  CD1        5.6440  -10.8810   28.8870 C.ar  255  PHE255     -0.0042
    101  CD2        4.1170  -12.5310   29.7330 C.ar  255  PHE255     -0.0042
    102  CE1        6.0000  -11.7420   27.8420 C.ar  255  PHE255     -0.0003
    103  CE2        4.4620  -13.4220   28.6890 C.ar  255  PHE255     -0.0003
    104  CZ         5.3910  -13.0340   27.7430 C.ar  255  PHE255     -0.0000
    105  N          0.3930   -8.6500   26.2210 N.3   259  ASN259     -0.1240
    106  CA        -0.1190   -9.5890   25.2220 C.3   259  ASN259      0.1653
    107  C         -1.5990   -9.3680   24.9100 C.2   259  ASN259      0.2266
    108  O         -2.0440   -9.5690   23.7700 O.2   259  ASN259     -0.2867
    109  CB         0.0740  -11.0520   25.6770 C.3   259  ASN259      0.1155
    110  CG         1.5240  -11.4710   25.7100 C.2   259  ASN259      0.2627
    111  OD1        1.9660  -12.1470   26.6490 O.2   259  ASN259     -0.2716
    112  ND2        2.2710  -11.0880   24.6960 N.am  259  ASN259     -0.0877
    113  N          3.0420  -10.4170    6.9330 N.3   277  LEU277     -0.1231
    114  CA         4.3160   -9.8770    7.3950 C.3   277  LEU277      0.1693
    115  C          5.2820  -11.0140    7.7620 C.2   277  LEU277      0.2591
    116  O          6.5210  -10.8640    7.6720 O.2   277  LEU277     -0.2718
    117  CB         4.0970   -8.9400    8.5780 C.3   277  LEU277      0.0284
    118  CG         3.2650   -7.6920    8.2460 C.3   277  LEU277      0.0019
    119  CD1        3.2680   -6.7090    9.3870 C.3   277  LEU277      0.0001
    120  CD2        3.8500   -7.0350    7.0280 C.3   277  LEU277      0.0001
    121  N          4.7170  -12.1610    8.1360 N.am  278  LEU278     -0.1980
    122  CA         5.5360  -13.2940    8.4750 C.3   278  LEU278      0.1596
    123  C          6.5800  -13.5430    7.3900 C.2   278  LEU278      0.2287
    124  O          7.7390  -13.8790    7.6970 O.2   278  LEU278     -0.2864
    125  CB         4.6690  -14.5400    8.6780 C.3   278  LEU278      0.0297
    126  CG         5.2640  -15.8280    9.2640 C.3   278  LEU278      0.0022
    127  CD1        5.8970  -16.6420    8.2230 C.3   278  LEU278      0.0001
    128  CD2        6.2690  -15.5010   10.3290 C.3   278  LEU278      0.0001
    129  N         10.0080   -9.9090    5.6240 N.3   281  PHE281     -0.1241
    130  CA        11.3900   -9.4840    5.8560 C.3   281  PHE281      0.1605
    131  C         12.4500  -10.4900    5.3990 C.2   281  PHE281      0.2264
    132  O         12.2400  -11.6900    5.4220 O.2   281  PHE281     -0.2867
    133  CB        11.5870   -9.1630    7.3510 C.3   281  PHE281      0.0534
    134  CG        10.8740   -7.9380    7.7760 C.ar  281  PHE281     -0.0203
    135  CD1        9.5010   -7.9700    8.0560 C.ar  281  PHE281     -0.0042
    136  CD2       11.5250   -6.7300    7.7680 C.ar  281  PHE281     -0.0042
    137  CE1        8.8010   -6.7900    8.3120 C.ar  281  PHE281     -0.0003
    138  CE2       10.8420   -5.5460    8.0230 C.ar  281  PHE281     -0.0003
    139  CZ         9.4660   -5.5750    8.2950 C.ar  281  PHE281     -0.0000
    140  N         13.9390  -13.9070    7.8320 N.3   284  ASN284     -0.1225
    141  CA        13.1810  -14.1250    9.0450 C.3   284  ASN284      0.1785
    142  C         13.0740  -15.5660    9.4910 C.2   284  ASN284      0.2597
    143  O         13.0980  -15.8290   10.6760 O.2   284  ASN284     -0.2718
    144  CB        11.7780  -13.5290    8.9360 C.3   284  ASN284      0.1169
    145  CG        11.0280  -13.5870   10.2500 C.2   284  ASN284      0.2627
    146  OD1       11.5650  -13.1920   11.3030 O.2   284  ASN284     -0.2716
    147  ND2        9.7660  -14.0730   10.2050 N.am  284  ASN284     -0.0877
    148  N         12.9510  -16.4950    8.5440 N.am  285  ALA285     -0.1979
    149  CA        12.8490  -17.9060    8.8910 C.3   285  ALA285      0.1597
    150  C         14.0920  -18.3420    9.6230 C.2   285  ALA285      0.2287
    151  O         14.0000  -19.0800   10.5810 O.2   285  ALA285     -0.2864
    152  CB        12.6640  -18.7590    7.6300 C.3   285  ALA285      0.0319
    153  N         16.0690  -16.3930   11.2910 N.3   287  LEU287     -0.1231
    154  CA        16.1150  -15.7260   12.5810 C.3   287  LEU287      0.1693
    155  C         15.2550  -16.4850   13.5780 C.2   287  LEU287      0.2592
    156  O         15.6810  -16.7010   14.6980 O.2   287  LEU287     -0.2718
    157  CB        15.6390  -14.2850   12.4840 C.3   287  LEU287      0.0284
    158  CG        15.4080  -13.5690   13.8380 C.3   287  LEU287      0.0019
    159  CD1       16.7220  -13.3690   14.5870 C.3   287  LEU287      0.0001
    160  CD2       14.6750  -12.1900   13.5880 C.3   287  LEU287      0.0001
    161  N         14.0560  -16.8850   13.1750 N.am  288  GLN288     -0.1966
    162  CA        13.2010  -17.6340   14.0820 C.3   288  GLN288      0.1733
    163  C         13.7940  -18.9890   14.5000 C.2   288  GLN288      0.2616
    164  O         13.5860  -19.3980   15.6530 O.2   288  GLN288     -0.2715
    165  CB        11.8100  -17.8410   13.4920 C.3   288  GLN288      0.0408
    166  CG        11.1010  -16.5320   13.0990 C.3   288  GLN288      0.0908
    167  CD        10.9810  -15.5400   14.2590 C.2   288  GLN288      0.2608
    168  OE1       10.4760  -15.8690   15.3210 O.2   288  GLN288     -0.2717
    169  NE2       11.4580  -14.3210   14.0440 N.am  288  GLN288     -0.0878
    170  N         14.4990  -19.6990   13.5970 N.am  289  MET289     -0.1977
    171  CA        15.1360  -20.9730   13.9810 C.3   289  MET289      0.1605
    172  C         16.1990  -20.6660   15.0500 C.2   289  MET289      0.2287
    173  O         16.2890  -21.3360   16.0510 O.2   289  MET289     -0.2864
    174  CB        15.8510  -21.6620   12.8150 C.3   289  MET289      0.0413
    175  CG        15.0050  -22.6120   11.9950 C.3   289  MET289      0.0598
    176  SD        14.2170  -23.9250   12.9870 S.3   289  MET289     -0.1393
    177  CE        12.6320  -24.0530   12.1990 C.3   289  MET289      0.0692
    178  N         15.8300  -21.5480   23.0490 N.3   295  ASN295     -0.1240
    179  CA        14.8060  -21.8750   24.0180 C.3   295  ASN295      0.1653
    180  C         14.6980  -23.3810   24.3230 C.2   295  ASN295      0.2266
    181  O         15.2020  -24.2040   23.5890 O.2   295  ASN295     -0.2867
    182  CB        13.4530  -21.3890   23.5080 C.3   295  ASN295      0.1155
    183  CG        13.3820  -19.8760   23.3800 C.2   295  ASN295      0.2627
    184  OD1       14.0410  -19.1760   24.1360 O.2   295  ASN295     -0.2716
    185  ND2       12.5730  -19.3640   22.4310 N.am  295  ASN295     -0.0877
    186  N          8.7740  -24.3810   24.1850 N.3   300  ALA300     -0.1245
    187  CA         8.4500  -23.5520   23.0260 C.3   300  ALA300      0.1562
    188  C          7.3580  -24.1720   22.1730 C.2   300  ALA300      0.2260
    189  O          6.4800  -23.4760   21.6860 O.2   300  ALA300     -0.2867
    190  CB         9.6620  -23.2930   22.1910 C.3   300  ALA300      0.0290
    191  N          4.1880  -23.7670   23.9180 N.3   303  ALA303     -0.1231
    192  CA         3.7600  -22.3970   23.8320 C.3   303  ALA303      0.1694
    193  C          3.1350  -22.1330   22.4620 C.2   303  ALA303      0.2592
    194  O          2.1150  -21.4410   22.3640 O.2   303  ALA303     -0.2718
    195  CB         4.9560  -21.4530   24.0810 C.3   303  ALA303      0.0304
    196  N          3.7470  -22.6820   21.4110 N.am  304  TYR304     -0.1976
    197  CA         3.2230  -22.5200   20.0590 C.3   304  TYR304      0.1639
    198  C          1.7570  -22.9650   20.0160 C.2   304  TYR304      0.2290
    199  O          0.9230  -22.3500   19.3160 O.2   304  TYR304     -0.2864
    200  CB         4.0110  -23.3610   19.0750 C.3   304  TYR304      0.0560
    201  CG         3.4760  -23.2900   17.6500 C.ar  304  TYR304     -0.0198
    202  CD1        3.6560  -22.1400   16.8660 C.ar  304  TYR304     -0.0009
    203  CD2        2.7900  -24.3810   17.0710 C.ar  304  TYR304     -0.0009
    204  CE1        3.1800  -22.0920   15.5590 C.ar  304  TYR304      0.0417
    205  CE2        2.3000  -24.3230   15.7670 C.ar  304  TYR304      0.0417
    206  CZ         2.5010  -23.1850   15.0160 C.ar  304  TYR304      0.1957
    207  OH         2.0630  -23.1230   13.6990 O.3   304  TYR304     -0.2866
    208  N         -0.0950  -20.2470   21.1830 N.3   307  PHE307     -0.1241
    209  CA        -0.0020  -19.1670   20.1760 C.3   307  PHE307      0.1605
    210  C         -1.0410  -19.4130   19.0600 C.2   307  PHE307      0.2264
    211  O         -1.7750  -18.5020   18.7030 O.2   307  PHE307     -0.2867
    212  CB         1.4250  -19.0770   19.5880 C.3   307  PHE307      0.0534
    213  CG         1.5540  -18.1320   18.4120 C.ar  307  PHE307     -0.0203
    214  CD1        1.4980  -16.7510   18.5860 C.ar  307  PHE307     -0.0042
    215  CD2        1.7300  -18.6460   17.0990 C.ar  307  PHE307     -0.0042
    216  CE1        1.6130  -15.8800   17.4690 C.ar  307  PHE307     -0.0003
    217  CE2        1.8420  -17.8130   15.9980 C.ar  307  PHE307     -0.0003
    218  CZ         1.7860  -16.4340   16.1680 C.ar  307  PHE307     -0.0000
@<TRIPOS>BOND
     1   131   132    2
     2   131   130    1
     3   129   130    1
     4   130   133    1
     5    80    81    1
     6   113   114    1
     7   120   118    1
     8   133   134    1
     9   123   124    2
    10   123   122    1
    11   114   115    1
    12   114   117    1
    13   152   149    1
    14   116   115    2
    15   115   121   am
    16   136   134   ar
    17   136   138   ar
    18   134   135   ar
    19   140   141    1
    20   138   139   ar
    21   135   137   ar
    22   121   122    1
    23    81    82    1
    24    81    84    1
    25   127   126    1
    26   118   117    1
    27   118   119    1
    28   139   137   ar
    29   122   125    1
    30    82    83    2
    31   148   149    1
    32   148   142   am
    33   125   126    1
    34    85    84    1
    35   149   150    1
    36   144   141    1
    37   144   145    1
    38    84    86    1
    39   141   142    1
    40   126   128    1
    41   142   143    2
    42   150   151    2
    43   147   145   am
    44   145   146    2
    45   153   154    1
    46   175   174    1
    47   175   176    1
    48   177   176    1
    49   157   154    1
    50   157   158    1
    51   154   155    1
    52   174   171    1
    53   166   165    1
    54   166   167    1
    55   161   155   am
    56   161   162    1
    57   165   162    1
    58   155   156    2
    59   160   158    1
    60   170   171    1
    61   170   163   am
    62   207   206    1
    63   158   159    1
    64   171   172    1
    65   169   167   am
    66   162   163    1
    67   167   168    2
    68   163   164    2
    69   206   204   ar
    70   206   205   ar
    71   172   173    2
    72   204   202   ar
    73   205   203   ar
    74   217   218   ar
    75   217   215   ar
    76   218   216   ar
    77   202   201   ar
    78   203   201   ar
    79   215   213   ar
    80   216   214   ar
    81   201   200    1
    82   213   214   ar
    83   213   212    1
    84   211   210    2
    85   210   209    1
    86   200   197    1
    87   199   198    2
    88   212   209    1
    89   198   197    1
    90   197   196    1
    91   209   208    1
    92    15    13    1
    93    14    13    1
    94    13    12    1
    95    93    91    1
    96   196   193   am
    97   189   188    2
    98    23    21    1
    99   188   187    1
   100   190   187    1
   101    11    10    2
   102    12     9    1
   103   194   193    2
   104    32    34   ar
   105    32    30   ar
   106   185   183   am
   107    91    92    1
   108    91    88    1
   109   193   192    1
   110    34    33   ar
   111    10     9    1
   112    10    16   am
   113   187   186    1
   114   178   179    1
   115    87    88    1
   116    30    29   ar
   117     9     8    1
   118    88    89    1
   119    33    31   ar
   120   183   182    1
   121   183   184    2
   122    21    20    1
   123    21    22    1
   124    17    16    1
   125    17    20    1
   126    17    18    1
   127   182   179    1
   128     7     5    1
   129   181   180    2
   130    19    18    2
   131   108   107    2
   132   192   191    1
   133   192   195    1
   134    29    31   ar
   135    29    28    1
   136     6     5    1
   137   179   180    1
   138    78    79   ar
   139    78    76   ar
   140     5     2    1
   141    79    77   ar
   142     2     3    1
   143     2     1    1
   144    28    25    1
   145     4     3    2
   146   112   110   am
   147    89    90    2
   148    41    39    1
   149   107   106    1
   150    76    73   ar
   151   106   109    1
   152   106   105    1
   153    64    63    1
   154    49    47    1
   155    65    63    1
   156    48    46    1
   157   109   110    1
   158   110   111    2
   159    69    68    2
   160    25    24    1
   161    25    26    1
   162    77    75   ar
   163    39    40    1
   164    39    36    1
   165    73    75   ar
   166    73    71   ar
   167    63    62    1
   168    75    74   ar
   169    68    67    1
   170    46    47    1
   171    46    43    1
   172    26    27    2
   173    67    70    1
   174    67    66    1
   175    62    59    1
   176    36    35    1
   177    36    37    1
   178    71    70    1
   179    71    72   ar
   180   104   102   ar
   181   104   103   ar
   182   102   100   ar
   183    74    72   ar
   184    45    44    2
   185    43    44    1
   186    43    42    1
   187    44    50   am
   188    38    37    2
   189    50    51    1
   190    59    60    1
   191    59    58    1
   192    51    54    1
   193    51    52    1
   194    54    55    1
   195   103   101   ar
   196    55    56    1
   197    97    96    2
   198    60    61    2
   199   100    99   ar
   200    53    52    2
   201   101    99   ar
   202    99    98    1
   203    96    95    1
   204    56    57    1
   205    95    98    1
   206    95    94    1
