@<TRIPOS>MOLECULE
tmp/2c9fA00.pdb
 146 143 0 0 0
SMALL
GASTEIGER

@<TRIPOS>ATOM
      1  N        -23.6560  -77.7840   74.1370 N.3   138  VAL138     -0.1245
      2  CA       -23.4680  -78.6520   75.2870 C.3   138  VAL138      0.1561
      3  C        -23.1210  -77.8510   76.5380 C.2   138  VAL138      0.2260
      4  O        -23.8520  -77.8770   77.5210 O.2   138  VAL138     -0.2867
      5  CB       -22.3310  -79.6490   75.0210 C.3   138  VAL138      0.0252
      6  CG1      -21.9380  -80.3490   76.2910 C.3   138  VAL138      0.0019
      7  CG2      -22.7620  -80.6480   73.9790 C.3   138  VAL138      0.0019
      8  N        -26.0020  -76.7310   78.1260 N.3   141  TYR141     -0.1227
      9  CA       -26.7960  -77.7970   78.7250 C.3   141  TYR141      0.1736
     10  C        -26.1870  -78.1170   80.0840 C.2   141  TYR141      0.2595
     11  O        -26.8960  -78.3720   81.0540 O.2   141  TYR141     -0.2718
     12  CB       -26.7260  -79.0350   77.8450 C.3   141  TYR141      0.0548
     13  CG       -27.2650  -80.2860   78.4770 C.ar  141  TYR141     -0.0200
     14  CD1      -28.6320  -80.5040   78.5750 C.ar  141  TYR141     -0.0009
     15  CD2      -26.4050  -81.2730   78.9480 C.ar  141  TYR141     -0.0009
     16  CE1      -29.1420  -81.6800   79.1190 C.ar  141  TYR141      0.0417
     17  CE2      -26.8990  -82.4570   79.4960 C.ar  141  TYR141      0.0417
     18  CZ       -28.2740  -82.6580   79.5750 C.ar  141  TYR141      0.1957
     19  OH       -28.7880  -83.8370   80.0770 O.3   141  TYR141     -0.2866
     20  N        -24.8600  -78.1070   80.1450 N.am  142  LEU142     -0.1980
     21  CA       -24.1650  -78.3840   81.3880 C.3   142  LEU142      0.1596
     22  C        -24.4520  -77.3660   82.4660 C.2   142  LEU142      0.2287
     23  O        -24.3240  -77.6690   83.6400 O.2   142  LEU142     -0.2864
     24  CB       -22.6570  -78.4260   81.1810 C.3   142  LEU142      0.0297
     25  CG       -22.0850  -79.6510   80.4960 C.3   142  LEU142      0.0022
     26  CD1      -20.5980  -79.7450   80.8130 C.3   142  LEU142      0.0001
     27  CD2      -22.8040  -80.8850   80.9950 C.3   142  LEU142      0.0001
     28  N        -29.4100  -80.2770   82.1180 N.3   146  ARG146     -0.1231
     29  CA       -29.5490  -81.3440   83.0960 C.3   146  ARG146      0.1694
     30  C        -30.1750  -80.8900   84.4100 C.2   146  ARG146      0.2591
     31  O        -31.1620  -81.4680   84.8740 O.2   146  ARG146     -0.2718
     32  CB       -28.1930  -81.9870   83.3750 C.3   146  ARG146      0.0321
     33  CG       -27.2320  -81.0870   84.0700 C.3   146  ARG146      0.0489
     34  CD       -25.9340  -81.7990   84.2210 C.3   146  ARG146      0.2205
     35  NE       -24.9030  -80.8800   84.6630 N.pl3 146  ARG146     -0.0865
     36  CZ       -23.6030  -81.0700   84.4740 C.cat 146  ARG146      0.5346
     37  NH1      -23.1800  -82.1580   83.8450 N.pl3 146  ARG146      0.1354
     38  NH2      -22.7320  -80.1660   84.9010 N.pl3 146  ARG146      0.1354
     39  N        -29.6220  -79.8470   85.0070 N.am  147  GLN147     -0.1979
     40  CA       -30.1570  -79.4040   86.2710 C.3   147  GLN147      0.1601
     41  C        -31.5080  -78.7340   86.1830 C.2   147  GLN147      0.2287
     42  O        -31.7630  -77.7460   86.8590 O.2   147  GLN147     -0.2864
     43  CB       -29.1510  -78.4980   86.9250 C.3   147  GLN147      0.0394
     44  CG       -27.8600  -79.2120   87.1190 C.3   147  GLN147      0.0908
     45  CD       -26.7180  -78.3820   86.6600 C.2   147  GLN147      0.2608
     46  OE1      -26.6180  -77.2030   87.0090 O.2   147  GLN147     -0.2717
     47  NE2      -25.8360  -78.9780   85.8740 N.am  147  GLN147     -0.0878
     48  N        -30.1670  -85.9600   77.8020 N.3   152  GLU152     -0.1245
     49  CA       -29.3080  -85.7950   76.6490 C.3   152  GLU152      0.1567
     50  C        -30.1870  -86.1870   75.4670 C.2   152  GLU152      0.2260
     51  O        -30.1900  -85.5440   74.4210 O.2   152  GLU152     -0.2867
     52  CB       -28.1050  -86.7320   76.7790 C.3   152  GLU152      0.0388
     53  CG       -27.3900  -86.6300   78.1370 C.3   152  GLU152      0.1160
     54  CD       -26.3120  -87.7030   78.3500 C.2   152  GLU152      0.3649
     55  OE1      -26.6440  -88.9070   78.2730 O.co2 152  GLU152     -0.2457
     56  OE2      -25.1370  -87.3480   78.6060 O.co2 152  GLU152     -0.2457
     57  N        -25.9490  -97.4220   76.5470 N.3   258  LYS258     -0.1245
     58  CA       -26.2790  -96.3510   77.4910 C.3   258  LYS258      0.1561
     59  C        -27.6990  -95.7680   77.3490 C.2   258  LYS258      0.2260
     60  O        -27.9630  -94.6540   77.7530 O.2   258  LYS258     -0.2867
     61  CB       -25.2210  -95.2410   77.3940 C.3   258  LYS258      0.0271
     62  CG       -23.8100  -95.7010   77.7590 C.3   258  LYS258      0.0035
     63  CD       -22.8670  -94.5150   77.8940 C.3   258  LYS258      0.0206
     64  CE       -21.4600  -94.9740   78.2300 C.3   258  LYS258      0.1093
     65  NZ       -20.4760  -93.8640   78.0770 N.3   258  LYS258     -0.1314
     66  N         -8.0630  -90.4930   70.4380 N.3   360  PHE360     -0.1241
     67  CA        -7.0570  -91.0850   71.3320 C.3   360  PHE360      0.1605
     68  C         -5.8820  -90.0990   71.4600 C.2   360  PHE360      0.2264
     69  O         -5.2450  -90.0010   72.5240 O.2   360  PHE360     -0.2867
     70  CB        -6.5620  -92.4200   70.7800 C.3   360  PHE360      0.0534
     71  CG        -7.6390  -93.4560   70.6790 C.ar  360  PHE360     -0.0203
     72  CD1       -8.4030  -93.5810   69.5160 C.ar  360  PHE360     -0.0042
     73  CD2       -7.9050  -94.3040   71.7580 C.ar  360  PHE360     -0.0042
     74  CE1       -9.4150  -94.5390   69.4270 C.ar  360  PHE360     -0.0003
     75  CE2       -8.9150  -95.2630   71.6810 C.ar  360  PHE360     -0.0003
     76  CZ        -9.6700  -95.3810   70.5120 C.ar  360  PHE360     -0.0000
     77  N         -6.3890  -86.4620   74.5670 N.3   363  LEU363     -0.1231
     78  CA        -6.6780  -87.3460   75.6910 C.3   363  LEU363      0.1693
     79  C         -8.1480  -87.3740   76.1710 C.2   363  LEU363      0.2593
     80  O         -8.4750  -88.0760   77.1370 O.2   363  LEU363     -0.2718
     81  CB        -5.7090  -87.0320   76.8430 C.3   363  LEU363      0.0284
     82  CG        -4.2110  -87.0780   76.4700 C.3   363  LEU363      0.0019
     83  CD1       -3.3270  -86.6570   77.6600 C.3   363  LEU363      0.0001
     84  CD2       -3.8510  -88.4830   75.9900 C.3   363  LEU363      0.0001
     85  N         -9.0280  -86.6460   75.4680 N.am  364  THR364     -0.1939
     86  CA       -10.4630  -86.5830   75.8100 C.3   364  THR364      0.2028
     87  C        -11.4810  -86.6310   74.6510 C.2   364  THR364      0.2642
     88  O        -11.2360  -86.1590   73.5330 O.2   364  THR364     -0.2714
     89  CB       -10.8100  -85.2990   76.6210 C.3   364  THR364      0.1808
     90  OG1       -9.9100  -85.1610   77.7270 O.3   364  THR364     -0.2208
     91  CG2      -12.2570  -85.3740   77.1480 C.3   364  THR364      0.0379
     92  N        -12.6450  -87.1940   74.9570 N.am  365  HIS365     -0.1959
     93  CA       -13.7330  -87.2950   74.0040 C.3   365  HIS365      0.1787
     94  C        -14.6140  -86.0570   74.2470 C.2   365  HIS365      0.2620
     95  O        -15.8450  -86.1400   74.2330 O.2   365  HIS365     -0.2715
     96  CB       -14.5300  -88.5920   74.2480 C.3   365  HIS365      0.0785
     97  CG       -13.6920  -89.8410   74.2580 C.ar  365  HIS365      0.0821
     98  ND1      -13.0310  -90.2950   75.3820 N.ar  365  HIS365     -0.2267
     99  CD2      -13.4250  -90.7390   73.2790 C.ar  365  HIS365      0.1154
    100  CE1      -12.3990  -91.4200   75.0960 C.ar  365  HIS365      0.1986
    101  NE2      -12.6230  -91.7130   73.8260 N.ar  365  HIS365     -0.2212
    102  N        -13.9610  -84.9100   74.4600 N.am  366  VAL366     -0.1977
    103  CA       -14.6680  -83.6630   74.7500 C.3   366  VAL366      0.1596
    104  C        -15.7020  -83.3120   73.7160 C.2   366  VAL366      0.2287
    105  O        -16.7760  -82.8050   74.0440 O.2   366  VAL366     -0.2864
    106  CB       -13.7490  -82.4330   74.8370 C.3   366  VAL366      0.0276
    107  CG1      -14.5650  -81.2470   75.3160 C.3   366  VAL366      0.0022
    108  CG2      -12.5940  -82.6730   75.7720 C.3   366  VAL366      0.0022
    109  N        -18.5740  -86.5690   73.3680 N.3   369  ARG369     -0.1231
    110  CA       -19.3170  -87.0200   74.5340 C.3   369  ARG369      0.1694
    111  C        -20.3680  -88.1330   74.3970 C.2   369  ARG369      0.2592
    112  O        -20.6030  -88.8740   75.3500 O.2   369  ARG369     -0.2718
    113  CB       -19.9780  -85.8180   75.1810 C.3   369  ARG369      0.0321
    114  CG       -18.9970  -84.7530   75.5640 C.3   369  ARG369      0.0489
    115  CD       -19.6170  -83.7690   76.5190 C.3   369  ARG369      0.2205
    116  NE       -18.5980  -83.0220   77.2490 N.pl3 369  ARG369     -0.0865
    117  CZ       -18.8380  -82.3260   78.3560 C.cat 369  ARG369      0.5346
    118  NH1      -20.0640  -82.2840   78.8520 N.pl3 369  ARG369      0.1354
    119  NH2      -17.8560  -81.6830   78.9750 N.pl3 369  ARG369      0.1354
    120  N        -21.0190  -88.2610   73.2460 N.am  370  PHE370     -0.1963
    121  CA       -22.0570  -89.2800   73.0960 C.3   370  PHE370      0.1756
    122  C        -21.7240  -90.3070   72.0130 C.2   370  PHE370      0.2461
    123  O        -22.5520  -90.6140   71.1580 O.2   370  PHE370     -0.2730
    124  CB       -23.3630  -88.5780   72.7560 C.3   370  PHE370      0.0574
    125  CG       -23.6150  -87.3390   73.5700 C.ar  370  PHE370     -0.0200
    126  CD1      -24.5440  -86.4010   73.1570 C.ar  370  PHE370     -0.0042
    127  CD2      -22.9290  -87.1080   74.7500 C.ar  370  PHE370     -0.0042
    128  CE1      -24.7870  -85.2540   73.9090 C.ar  370  PHE370     -0.0003
    129  CE2      -23.1620  -85.9680   75.5080 C.ar  370  PHE370     -0.0003
    130  CZ       -24.0930  -85.0370   75.0860 C.ar  370  PHE370     -0.0000
    131  N        -20.5260  -90.8960   72.0730 N.am  371  PRO371     -0.2716
    132  CA       -20.0520  -91.8810   71.0990 C.3   371  PRO371      0.1536
    133  C        -20.9140  -93.0800   70.7750 C.2   371  PRO371      0.2598
    134  O        -20.4220  -94.0530   70.2120 O.2   371  PRO371     -0.2715
    135  CB       -18.7040  -92.2950   71.6670 C.3   371  PRO371      0.0310
    136  CG       -18.9450  -92.2290   73.1140 C.3   371  PRO371      0.0237
    137  CD       -19.6820  -90.9280   73.2770 C.3   371  PRO371      0.0939
    138  N        -22.1880  -93.0420   71.1200 N.am  372  GLU372     -0.1978
    139  CA       -23.0250  -94.1830   70.8110 C.3   372  GLU372      0.1602
    140  C        -24.1790  -93.6940   69.9900 C.2   372  GLU372      0.2287
    141  O        -24.4680  -94.2360   68.9200 O.2   372  GLU372     -0.2864
    142  CB       -23.5580  -94.8350   72.0790 C.3   372  GLU372      0.0415
    143  CG       -22.5280  -95.0450   73.1780 C.3   372  GLU372      0.1163
    144  CD       -22.2840  -93.7870   74.0050 C.2   372  GLU372      0.3649
    145  OE1      -23.2500  -93.0160   74.2240 O.co2 372  GLU372     -0.2457
    146  OE2      -21.1340  -93.5830   74.4530 O.co2 372  GLU372     -0.2457
@<TRIPOS>BOND
     1   141   140    2
     2    74    72   ar
     3    74    76   ar
     4    72    71   ar
     5   140   139    1
     6   134   133    2
     7    66    67    1
     8    76    75   ar
     9    71    70    1
    10    71    73   ar
    11   133   132    1
    12   133   138   am
    13    70    67    1
    14   139   138    1
    15   139   142    1
    16   132   135    1
    17   132   131    1
    18   123   122    2
    19    67    68    1
    20    68    69    2
    21   135   136    1
    22    75    73   ar
    23   122   131   am
    24   122   121    1
    25   131   137    1
    26   142   143    1
    27   124   121    1
    28   124   125    1
    29   121   120    1
    30   136   137    1
    31   126   125   ar
    32   126   128   ar
    33   143   144    1
    34   120   111   am
    35    99   101   ar
    36    99    97   ar
    37   109   110    1
    38    88    87    2
    39   125   127   ar
    40   104   105    2
    41   104   103    1
    42   101   100   ar
    43   128   130   ar
    44     7     5    1
    45    93    94    1
    46    93    96    1
    47    93    92    1
    48   144   145   ar
    49   144   146   ar
    50     1     2    1
    51    95    94    2
    52    94   102   am
    53    96    97    1
    54    97    98   ar
    55   111   110    1
    56   111   112    2
    57    51    50    2
    58   102   103    1
    59   110   113    1
    60    77    78    1
    61    87    92   am
    62    87    86    1
    63   103   106    1
    64   127   129   ar
    65   106   107    1
    66   106   108    1
    67     5     2    1
    68     5     6    1
    69   130   129   ar
    70   100    98   ar
    71   113   114    1
    72     2     3    1
    73    50    49    1
    74    85    86    1
    75    85    79   am
    76   114   115    1
    77    78    79    1
    78    78    81    1
    79    86    89    1
    80    84    82    1
    81    79    80    2
    82    82    81    1
    83    82    83    1
    84   115   116    1
    85     3     4    2
    86    57    58    1
    87    89    91    1
    88    89    90    1
    89    49    52    1
    90    49    48    1
    91    52    53    1
    92   116   117    2
    93    59    58    1
    94    59    60    2
    95    61    58    1
    96    61    62    1
    97    62    63    1
    98    12    13    1
    99    12     9    1
   100    63    64    1
   101    65    64    1
   102     8     9    1
   103    53    54    1
   104    55    54   ar
   105    54    56   ar
   106   117   118    1
   107   117   119    1
   108    13    14   ar
   109    13    15   ar
   110    14    16   ar
   111     9    10    1
   112    15    17   ar
   113    16    18   ar
   114    17    18   ar
   115    18    19    1
   116    10    20   am
   117    10    11    2
   118    20    21    1
   119    25    26    1
   120    25    27    1
   121    25    24    1
   122    24    21    1
   123    21    22    1
   124    28    29    1
   125    22    23    2
   126    29    32    1
   127    29    30    1
   128    32    33    1
   129    37    36    1
   130    33    34    1
   131    34    35    1
   132    30    31    2
   133    30    39   am
   134    36    35    2
   135    36    38    1
   136    39    40    1
   137    47    45   am
   138    41    40    1
   139    41    42    2
   140    40    43    1
   141    45    46    2
   142    45    44    1
   143    43    44    1
