@<TRIPOS>MOLECULE
tmp/2c9kA00.pdb
 100 96 0 0 0
SMALL
GASTEIGER

@<TRIPOS>ATOM
      1  N         23.1740   52.1460   -2.0140 N.3   274  ASP274     -0.1239
      2  CA        23.6380   52.7250   -0.7670 C.3   274  ASP274      0.1674
      3  C         22.7050   53.7960   -0.2430 C.2   274  ASP274      0.2266
      4  O         22.4040   53.8280    0.9530 O.2   274  ASP274     -0.2867
      5  CB        25.0270   53.3420   -0.9260 C.3   274  ASP274      0.1410
      6  CG        26.1190   52.3070   -1.0150 C.2   274  ASP274      0.3668
      7  OD1       25.8370   51.1160   -0.7550 O.co2 274  ASP274     -0.2456
      8  OD2       27.2650   52.6940   -1.3390 O.co2 274  ASP274     -0.2456
      9  N         18.4340   52.2870    0.2740 N.3   277  THR277     -0.1203
     10  CA        18.0850   51.1840    1.1630 C.3   277  THR277      0.1994
     11  C         18.8220   51.3340    2.4900 C.2   277  THR277      0.2618
     12  O         19.6310   52.2390    2.6390 O.2   277  THR277     -0.2717
     13  CB        18.4140   49.8220    0.5120 C.3   277  THR277      0.1784
     14  OG1       19.7990   49.7760    0.1430 O.3   277  THR277     -0.2211
     15  CG2       17.5550   49.6170   -0.7300 C.3   277  THR277      0.0376
     16  N         18.5520   50.4650    3.4570 N.am  278  ARG278     -0.1965
     17  CA        19.2140   50.5900    4.7490 C.3   278  ARG278      0.1729
     18  C         20.2460   49.5070    4.9860 C.2   278  ARG278      0.2616
     19  O         20.0090   48.3430    4.6780 O.2   278  ARG278     -0.2715
     20  CB        18.1760   50.5690    5.8820 C.3   278  ARG278      0.0348
     21  CG        17.1740   51.7130    5.8110 C.3   278  ARG278      0.0492
     22  CD        16.0200   51.5380    6.7790 C.3   278  ARG278      0.2205
     23  NE        16.4330   51.6160    8.1750 N.pl3 278  ARG278     -0.0865
     24  CZ        15.6920   51.1870    9.1920 C.cat 278  ARG278      0.5346
     25  NH1       14.5030   50.6520    8.9730 N.pl3 278  ARG278      0.1354
     26  NH2       16.1500   51.2710   10.4300 N.pl3 278  ARG278      0.1354
     27  N         21.3950   49.8910    5.5350 N.am  279  ARG279     -0.1977
     28  CA        22.4510   48.9280    5.8260 C.3   279  ARG279      0.1597
     29  C         21.9770   47.9450    6.8900 C.2   279  ARG279      0.2287
     30  O         21.1250   48.2750    7.7270 O.2   279  ARG279     -0.2864
     31  CB        23.7070   49.6500    6.3060 C.3   279  ARG279      0.0334
     32  CG        24.7320   49.8600    5.2140 C.3   279  ARG279      0.0492
     33  CD        25.2300   51.2910    5.1860 C.3   279  ARG279      0.2205
     34  NE        26.1350   51.6240    6.2850 N.pl3 279  ARG279     -0.0865
     35  CZ        26.5030   52.8680    6.5850 C.cat 279  ARG279      0.5346
     36  NH1       26.0390   53.8910    5.8710 N.pl3 279  ARG279      0.1354
     37  NH2       27.3300   53.0960    7.5970 N.pl3 279  ARG279      0.1354
     38  N         12.5730   56.4850   15.1930 N.3   310  PHE310     -0.1241
     39  CA        12.3590   55.0550   15.3990 C.3   310  PHE310      0.1605
     40  C         13.0910   54.4880   16.6160 C.2   310  PHE310      0.2264
     41  O         13.9510   55.1450   17.2000 O.2   310  PHE310     -0.2867
     42  CB        12.8270   54.3160   14.1510 C.3   310  PHE310      0.0534
     43  CG        14.2840   54.5090   13.8600 C.ar  310  PHE310     -0.0203
     44  CD1       15.2240   53.5980   14.3200 C.ar  310  PHE310     -0.0042
     45  CD2       14.7210   55.6280   13.1590 C.ar  310  PHE310     -0.0042
     46  CE1       16.5780   53.7940   14.0880 C.ar  310  PHE310     -0.0003
     47  CE2       16.0760   55.8350   12.9220 C.ar  310  PHE310     -0.0003
     48  CZ        17.0070   54.9150   13.3880 C.ar  310  PHE310     -0.0000
     49  N         16.7880   59.0240   15.7790 N.3   320  LYS320     -0.1231
     50  CA        16.3530   59.8620   14.6730 C.3   320  LYS320      0.1693
     51  C         17.1960   59.5630   13.4390 C.2   320  LYS320      0.2593
     52  O         18.3870   59.2890   13.5390 O.2   320  LYS320     -0.2718
     53  CB        16.4890   61.3330   15.0620 C.3   320  LYS320      0.0285
     54  CG        16.0680   62.3130   13.9910 C.3   320  LYS320      0.0035
     55  CD        16.5330   63.7080   14.3560 C.3   320  LYS320      0.0206
     56  CE        16.1530   64.7310   13.3000 C.3   320  LYS320      0.1093
     57  NZ        16.6310   66.0990   13.6650 N.3   320  LYS320     -0.1314
     58  N         16.5740   59.6160   12.2700 N.am  321  SER321     -0.1938
     59  CA        17.2940   59.3350   11.0350 C.3   321  SER321      0.2055
     60  C         17.9100   60.6020   10.4730 C.2   321  SER321      0.2643
     61  O         17.8800   61.6590   11.1140 O.2   321  SER321     -0.2714
     62  CB        16.3490   58.7580    9.9850 C.3   321  SER321      0.2130
     63  OG        15.5100   59.7790    9.4900 O.3   321  SER321     -0.2179
     64  N         18.4700   60.4930    9.2700 N.am  322  SER322     -0.1949
     65  CA        19.0640   61.6540    8.6210 C.3   322  SER322      0.1924
     66  C         17.9240   62.5010    8.1080 C.2   322  SER322      0.2314
     67  O         16.7920   62.0380    8.0250 O.2   322  SER322     -0.2863
     68  CB        19.9450   61.2400    7.4430 C.3   322  SER322      0.2116
     69  OG        21.1260   60.6010    7.8880 O.3   322  SER322     -0.2180
     70  N         16.6360   63.6980    5.0670 N.3   324  PHE324     -0.1241
     71  CA        16.7490   63.6060    3.6210 C.3   324  PHE324      0.1605
     72  C         16.1150   64.8590    3.0280 C.2   324  PHE324      0.2264
     73  O         15.4450   65.6070    3.7360 O.2   324  PHE324     -0.2867
     74  CB        16.0260   62.3570    3.1080 C.3   324  PHE324      0.0534
     75  CG        16.4060   61.0950    3.8310 C.ar  324  PHE324     -0.0203
     76  CD1       15.7960   60.7550    5.0310 C.ar  324  PHE324     -0.0042
     77  CD2       17.3790   60.2480    3.3150 C.ar  324  PHE324     -0.0042
     78  CE1       16.1450   59.5850    5.7080 C.ar  324  PHE324     -0.0003
     79  CE2       17.7340   59.0780    3.9870 C.ar  324  PHE324     -0.0003
     80  CZ        17.1100   58.7510    5.1850 C.ar  324  PHE324     -0.0000
     81  N         10.2380   52.6460    7.3440 N.3   422  PHE422     -0.1241
     82  CA        11.1930   53.7230    7.0830 C.3   422  PHE422      0.1605
     83  C         10.9550   54.3610    5.7060 C.2   422  PHE422      0.2264
     84  O         10.3780   53.7350    4.8120 O.2   422  PHE422     -0.2867
     85  CB        12.6020   53.1270    7.0950 C.3   422  PHE422      0.0534
     86  CG        13.6770   54.0810    7.5150 C.ar  422  PHE422     -0.0203
     87  CD1       13.8540   54.3970    8.8620 C.ar  422  PHE422     -0.0042
     88  CD2       14.5580   54.6100    6.5760 C.ar  422  PHE422     -0.0042
     89  CE1       14.8960   55.2190    9.2690 C.ar  422  PHE422     -0.0003
     90  CE2       15.6080   55.4370    6.9750 C.ar  422  PHE422     -0.0003
     91  CZ        15.7780   55.7400    8.3260 C.ar  422  PHE422     -0.0000
     92  N         13.3960   56.5280    3.0230 N.3   424  LYS424     -0.1245
     93  CA        14.6610   57.1620    2.6510 C.3   424  LYS424      0.1561
     94  C         14.4450   57.9920    1.4050 C.2   424  LYS424      0.2260
     95  O         13.4130   57.8780    0.7500 O.2   424  LYS424     -0.2867
     96  CB        15.7540   56.1170    2.3750 C.3   424  LYS424      0.0271
     97  CG        16.5600   55.7290    3.5960 C.3   424  LYS424      0.0035
     98  CD        17.5040   54.5790    3.3240 C.3   424  LYS424      0.0206
     99  CE        18.6570   54.9800    2.4160 C.3   424  LYS424      0.1093
    100  NZ        19.6990   55.8010    3.0830 N.3   424  LYS424     -0.1314
@<TRIPOS>BOND
     1     1     2    1
     2     8     6   ar
     3     6     5    1
     4     6     7   ar
     5     5     2    1
     6     2     3    1
     7    15    13    1
     8     3     4    2
     9    14    13    1
    10     9    10    1
    11    13    10    1
    12    95    94    2
    13    10    11    1
    14    94    93    1
    15    96    93    1
    16    96    97    1
    17    99   100    1
    18    99    98    1
    19    11    12    2
    20    11    16   am
    21    93    92    1
    22    72    71    1
    23    72    73    2
    24    74    71    1
    25    74    75    1
    26    77    75   ar
    27    77    79   ar
    28    98    97    1
    29    16    17    1
    30    71    70    1
    31    75    76   ar
    32    79    80   ar
    33    19    18    2
    34    17    18    1
    35    17    20    1
    36    84    83    2
    37    18    27   am
    38    76    78   ar
    39    80    78   ar
    40    33    32    1
    41    33    34    1
    42    32    31    1
    43    27    28    1
    44    83    82    1
    45    21    20    1
    46    21    22    1
    47    28    31    1
    48    28    29    1
    49    36    35    1
    50    34    35    2
    51    88    90   ar
    52    88    86   ar
    53    35    37    1
    54    22    23    1
    55    29    30    2
    56    90    91   ar
    57    82    85    1
    58    82    81    1
    59    85    86    1
    60    68    69    1
    61    68    65    1
    62    86    87   ar
    63    67    66    2
    64    66    65    1
    65    23    24    2
    66    91    89   ar
    67    65    64    1
    68    87    89   ar
    69    25    24    1
    70    24    26    1
    71    64    60   am
    72    63    62    1
    73    62    59    1
    74    60    59    1
    75    60    61    2
    76    59    58    1
    77    58    51   am
    78    47    45   ar
    79    47    48   ar
    80    45    43   ar
    81    56    57    1
    82    56    55    1
    83    48    46   ar
    84    51    52    2
    85    51    50    1
    86    43    42    1
    87    43    44   ar
    88    54    55    1
    89    54    53    1
    90    46    44   ar
    91    42    39    1
    92    50    53    1
    93    50    49    1
    94    38    39    1
    95    39    40    1
    96    40    41    2
