@<TRIPOS>MOLECULE
tmp/2c9oA00.pdb
 193 186 0 0 0
SMALL
GASTEIGER

@<TRIPOS>ATOM
      1  N          5.9320   39.8260   29.9950 N.3     9  SER9       -0.1202
      2  CA         6.0270   40.1410   31.3950 C.3     9  SER9        0.2020
      3  C          7.4780   40.4050   31.8440 C.2     9  SER9        0.2618
      4  O          7.7270   40.7160   33.0080 O.2     9  SER9       -0.2717
      5  CB         5.3920   39.0290   32.1910 C.3     9  SER9        0.2103
      6  OG         6.1780   37.8820   32.0110 O.3     9  SER9       -0.2182
      7  N          8.4120   40.2440   30.9130 N.am   10  HIS10      -0.1975
      8  CA         9.8310   40.5270   31.1270 C.3    10  HIS10       0.1656
      9  C         10.3580   41.6930   30.2960 C.2    10  HIS10       0.2291
     10  O         11.5420   41.7510   30.0990 O.2    10  HIS10      -0.2864
     11  CB        10.6740   39.2890   30.7460 C.3    10  HIS10       0.0771
     12  CG        10.1760   38.0280   31.3500 C.ar   10  HIS10       0.0820
     13  ND1       10.4440   37.6800   32.6590 N.ar   10  HIS10      -0.2267
     14  CD2        9.3680   37.0630   30.8610 C.ar   10  HIS10       0.1154
     15  CE1        9.8520   36.5370   32.9320 C.ar   10  HIS10       0.1986
     16  NE2        9.1610   36.1620   31.8740 N.ar   10  HIS10      -0.2212
     17  N         10.8630   44.6380   30.9070 N.3    12  HIS12      -0.1241
     18  CA        11.7350   45.5340   31.6840 C.3    12  HIS12       0.1621
     19  C         13.1790   44.9970   31.8690 C.2    12  HIS12       0.2264
     20  O         14.0330   45.7010   32.3790 O.2    12  HIS12      -0.2867
     21  CB        11.1340   45.7660   33.0580 C.3    12  HIS12       0.0745
     22  CG        11.0120   44.5230   33.8890 C.ar   12  HIS12       0.0817
     23  ND1       10.1600   43.4860   33.5580 N.ar   12  HIS12      -0.2268
     24  CD2       11.6090   44.1580   35.0500 C.ar   12  HIS12       0.1154
     25  CE1       10.2360   42.5400   34.4770 C.ar   12  HIS12       0.1986
     26  NE2       11.1340   42.9040   35.3750 N.ar   12  HIS12      -0.2212
     27  N         16.8040   46.5730   35.0900 N.3    30  GLY30      -0.1210
     28  CA        15.4630   46.0870   35.3820 C.3    30  GLY30       0.1956
     29  C         15.3200   45.0950   36.5180 C.2    30  GLY30       0.2612
     30  O         14.2210   44.8190   36.9440 O.2    30  GLY30      -0.2717
     31  N         16.4300   44.5500   37.0020 N.am   31  LEU31      -0.1965
     32  CA        16.4080   43.5270   38.0220 C.3    31  LEU31       0.1728
     33  C         16.6930   44.1040   39.4020 C.2    31  LEU31       0.2616
     34  O         17.5230   44.9850   39.5490 O.2    31  LEU31      -0.2715
     35  CB        17.4240   42.4550   37.7070 C.3    31  LEU31       0.0311
     36  CG        17.2840   41.6950   36.3820 C.3    31  LEU31       0.0022
     37  CD1       18.3020   40.5940   36.3800 C.3    31  LEU31       0.0001
     38  CD2       15.8720   41.0980   36.1260 C.3    31  LEU31       0.0001
     39  N         16.0130   43.5750   40.4080 N.am   32  VAL32      -0.1963
     40  CA        16.1940   43.9950   41.7870 C.3    32  VAL32       0.1727
     41  C         16.2750   42.7110   42.5900 C.2    32  VAL32       0.2617
     42  O         15.5240   41.8110   42.3700 O.2    32  VAL32      -0.2715
     43  CB        15.0010   44.8990   42.3270 C.3    32  VAL32       0.0290
     44  CG1       15.3730   46.3430   42.3620 C.3    32  VAL32       0.0023
     45  CG2       13.7710   44.7880   41.4940 C.3    32  VAL32       0.0023
     46  N         17.1970   42.6150   43.5230 N.am   33  GLY33      -0.1940
     47  CA        17.3070   41.4580   44.3640 C.3    33  GLY33       0.2014
     48  C         17.8170   40.2880   43.5520 C.2    33  GLY33       0.2638
     49  O         18.4030   40.4550   42.4670 O.2    33  GLY33      -0.2714
     50  N         17.6180   39.0930   44.0980 N.am   34  GLN34      -0.1977
     51  CA        18.1190   37.8550   43.4750 C.3    34  GLN34       0.1601
     52  C         19.6110   37.9370   43.0730 C.2    34  GLN34       0.2287
     53  O         20.0260   37.4070   42.0370 O.2    34  GLN34      -0.2864
     54  CB        17.2470   37.4560   42.2880 C.3    34  GLN34       0.0394
     55  CG        17.1840   35.9260   42.0350 C.3    34  GLN34       0.0908
     56  CD        16.4860   35.1580   43.1470 C.2    34  GLN34       0.2608
     57  OE1       17.1380   34.5880   44.0070 O.2    34  GLN34      -0.2717
     58  NE2       15.1510   35.1420   43.1460 N.am   34  GLN34      -0.0878
     59  N         21.9420   36.2330   39.9370 N.3    38  ARG38      -0.1245
     60  CA        22.3900   37.1830   38.9110 C.3    38  ARG38       0.1563
     61  C         23.8790   37.1190   38.7090 C.2    38  ARG38       0.2260
     62  O         24.3110   37.0870   37.5790 O.2    38  ARG38      -0.2867
     63  CB        21.9490   38.6010   39.2290 C.3    38  ARG38       0.0307
     64  CG        20.4740   38.8160   39.0430 C.3    38  ARG38       0.0489
     65  CD        19.9390   40.0560   39.7640 C.3    38  ARG38       0.2205
     66  NE        20.5900   41.2960   39.3210 N.pl3  38  ARG38      -0.0865
     67  CZ        20.7040   42.3660   40.0810 C.cat  38  ARG38       0.5346
     68  NH1       20.1940   42.3690   41.2880 N.pl3  38  ARG38       0.1354
     69  NH2       21.3310   43.4390   39.6370 N.pl3  38  ARG38       0.1354
     70  N          8.2160   28.7460   41.9750 N.3    64  PRO64      -0.2102
     71  CA         7.4990   29.5870   41.0130 C.3    64  PRO64       0.1504
     72  C          7.6040   31.0780   41.3650 C.2    64  PRO64       0.2576
     73  O          7.5270   31.4320   42.5110 O.2    64  PRO64      -0.2718
     74  CB         6.0420   29.1160   41.1490 C.3    64  PRO64       0.0282
     75  CG         6.1550   27.7640   41.7680 C.3    64  PRO64       0.0208
     76  CD         7.3050   27.8280   42.6790 C.3    64  PRO64       0.0893
     77  N          7.7750   31.9060   40.3500 N.am   65  GLY65      -0.1943
     78  CA         7.9300   33.3460   40.4970 C.3    65  GLY65       0.2014
     79  C          9.1820   33.8280   41.2240 C.2    65  GLY65       0.2640
     80  O          9.1140   34.7410   42.0160 O.2    65  GLY65      -0.2714
     81  N         10.3190   33.2120   40.9600 N.am   66  THR66      -0.1936
     82  CA        11.5700   33.6010   41.5920 C.3    66  THR66       0.2028
     83  C         12.5100   34.0640   40.5040 C.2    66  THR66       0.2643
     84  O         13.7090   34.1650   40.7010 O.2    66  THR66      -0.2714
     85  CB        12.1670   32.4790   42.4340 C.3    66  THR66       0.1808
     86  OG1       12.3520   31.2860   41.6630 O.3    66  THR66      -0.2208
     87  CG2       11.2590   32.1940   43.5980 C.3    66  THR66       0.0379
     88  N         11.9500   34.3760   39.3450 N.am   67  GLY67      -0.1939
     89  CA        12.7510   34.9760   38.2990 C.3    67  GLY67       0.2014
     90  C         13.5530   34.0540   37.4310 C.2    67  GLY67       0.2639
     91  O         14.4860   34.5140   36.7590 O.2    67  GLY67      -0.2714
     92  N         13.2120   32.7650   37.3850 N.am   68  LYS68      -0.1963
     93  CA        14.0180   31.8390   36.5750 C.3    68  LYS68       0.1728
     94  C         13.9250   32.2440   35.0970 C.2    68  LYS68       0.2617
     95  O         14.9340   32.3450   34.4080 O.2    68  LYS68      -0.2715
     96  CB        13.5830   30.3820   36.7890 C.3    68  LYS68       0.0311
     97  CG        13.7140   29.9240   38.2290 C.3    68  LYS68       0.0038
     98  CD        13.3020   28.4660   38.4490 C.3    68  LYS68       0.0206
     99  CE        11.8740   28.1880   38.1210 C.3    68  LYS68       0.1093
    100  NZ        10.9540   28.8530   39.0670 N.3    68  LYS68      -0.1314
    101  N         12.7190   32.5300   34.5980 N.am   69  THR69      -0.1937
    102  CA        12.5520   32.9420   33.2010 C.3    69  THR69       0.2028
    103  C         13.2170   34.2840   32.9390 C.2    69  THR69       0.2642
    104  O         13.8530   34.4800   31.9000 O.2    69  THR69      -0.2714
    105  CB        11.0730   33.0110   32.8060 C.3    69  THR69       0.1808
    106  OG1       10.3640   31.9190   33.3710 O.3    69  THR69      -0.2208
    107  CG2       10.8850   32.9850   31.3360 C.3    69  THR69       0.0379
    108  N         13.0350   35.2290   33.8570 N.am   70  ALA70      -0.1963
    109  CA        13.7000   36.5680   33.7670 C.3    70  ALA70       0.1728
    110  C         15.1970   36.4670   33.6400 C.2    70  ALA70       0.2616
    111  O         15.8020   37.1700   32.8110 O.2    70  ALA70      -0.2715
    112  CB        13.3540   37.4400   35.0000 C.3    70  ALA70       0.0334
    113  N         15.7910   35.5990   34.4570 N.am   71  LEU71      -0.1977
    114  CA        17.2560   35.4040   34.4790 C.3    71  LEU71       0.1596
    115  C         17.7730   34.7780   33.2120 C.2    71  LEU71       0.2287
    116  O         18.7970   35.1990   32.6810 O.2    71  LEU71      -0.2864
    117  CB        17.7200   34.5890   35.6810 C.3    71  LEU71       0.0297
    118  CG        17.7770   35.2930   37.0480 C.3    71  LEU71       0.0022
    119  CD1       18.1720   34.3350   38.1630 C.3    71  LEU71       0.0001
    120  CD2       18.6990   36.4810   37.0750 C.3    71  LEU71       0.0001
    121  N         11.6310   25.4720   30.4840 N.3   251  ASP251     -0.1239
    122  CA        10.9570   25.4130   31.7570 C.3   251  ASP251      0.1674
    123  C         10.2610   24.0760   31.8540 C.2   251  ASP251      0.2266
    124  O         10.0940   23.3740   30.8490 O.2   251  ASP251     -0.2867
    125  CB         9.9580   26.5570   31.8360 C.3   251  ASP251      0.1410
    126  CG         9.6120   26.9520   33.2720 C.2   251  ASP251      0.3668
    127  OD1       10.0330   26.2800   34.2440 O.co2 251  ASP251     -0.2456
    128  OD2        8.8740   27.9520   33.4140 O.co2 251  ASP251     -0.2456
    129  N         11.2690   35.7890   46.9330 N.3   315  TYR315     -0.1241
    130  CA        11.3560   37.1910   47.3210 C.3   315  TYR315      0.1605
    131  C         10.5570   37.4580   48.6060 C.2   315  TYR315      0.2264
    132  O          9.5080   36.8880   48.8270 O.2   315  TYR315     -0.2867
    133  CB        10.7880   38.0260   46.1890 C.3   315  TYR315      0.0534
    134  CG        11.5630   37.8630   44.9100 C.ar  315  TYR315     -0.0201
    135  CD1       10.9750   37.2830   43.7680 C.ar  315  TYR315     -0.0009
    136  CD2       12.9060   38.2390   44.8570 C.ar  315  TYR315     -0.0009
    137  CE1       11.7040   37.1350   42.6310 C.ar  315  TYR315      0.0417
    138  CE2       13.6350   38.1200   43.7070 C.ar  315  TYR315      0.0417
    139  CZ        13.0440   37.5710   42.6080 C.ar  315  TYR315      0.1957
    140  OH        13.8160   37.4600   41.4790 O.3   315  TYR315     -0.2866
    141  N          9.5810   44.7970   42.4680 N.3   323  ILE323     -0.1245
    142  CA         9.3650   44.2090   41.1420 C.3   323  ILE323      0.1561
    143  C          7.9630   44.5070   40.5560 C.2   323  ILE323      0.2260
    144  O          7.8330   44.7690   39.3510 O.2   323  ILE323     -0.2867
    145  CB         9.5930   42.6720   41.1630 C.3   323  ILE323      0.0252
    146  CG1       11.0070   42.3310   41.7130 C.3   323  ILE323      0.0019
    147  CG2        9.3790   42.0890   39.7670 C.3   323  ILE323      0.0019
    148  CD1       11.1640   40.8960   42.1120 C.3   323  ILE323      0.0001
    149  N          8.2440   48.0110   39.1000 N.3   326  ILE326     -0.1227
    150  CA         8.8720   48.0570   37.7930 C.3   326  ILE326      0.1732
    151  C          7.8660   47.6600   36.7060 C.2   326  ILE326      0.2595
    152  O          7.8780   48.2220   35.6070 O.2   326  ILE326     -0.2718
    153  CB         9.9820   46.9640   37.5960 C.3   326  ILE326      0.0485
    154  CG1       11.0610   46.9730   38.6730 C.2   326  ILE326     -0.0245
    155  CG2       10.6020   47.0510   36.1970 C.3   326  ILE326      0.0067
    156  CD1       11.5750   48.1440   38.9350 C.2   326  ILE326     -0.0049
    157  N          7.0700   46.6270   36.9780 N.am  327  ARG327     -0.1980
    158  CA         6.0910   46.1650   36.0030 C.3   327  ARG327      0.1597
    159  C          5.0310   47.2480   35.7660 C.2   327  ARG327      0.2287
    160  O          4.6960   47.5120   34.6280 O.2   327  ARG327     -0.2864
    161  CB         5.4070   44.8490   36.4290 C.3   327  ARG327      0.0334
    162  CG         6.2680   43.5790   36.4160 C.3   327  ARG327      0.0492
    163  CD         6.9500   43.3160   35.0440 C.3   327  ARG327      0.2205
    164  NE         6.0250   43.3940   33.9140 N.pl3 327  ARG327     -0.0865
    165  CZ         6.3280   43.7730   32.6750 C.cat 327  ARG327      0.5346
    166  NH1        7.5450   44.1290   32.3410 N.pl3 327  ARG327      0.1354
    167  NH2        5.3840   43.8130   31.7640 N.pl3 327  ARG327      0.1354
    168  N          4.7020   35.6750   43.0410 N.3   352  LEU352     -0.1231
    169  CA         4.9840   36.9550   42.4200 C.3   352  LEU352      0.1693
    170  C          4.1690   37.1360   41.1400 C.2   352  LEU352      0.2592
    171  O          3.6670   38.2350   40.9040 O.2   352  LEU352     -0.2718
    172  CB         6.4840   37.1020   42.1570 C.3   352  LEU352      0.0284
    173  CG         6.9690   38.3270   41.4040 C.3   352  LEU352      0.0019
    174  CD1        6.4310   39.6290   42.0000 C.3   352  LEU352      0.0001
    175  CD2        8.4510   38.2840   41.4380 C.3   352  LEU352      0.0001
    176  N          4.0080   36.0590   40.3660 N.am  353  ARG353     -0.1976
    177  CA         3.3180   36.0940   39.0800 C.3   353  ARG353      0.1640
    178  C          1.8240   36.3820   39.3110 C.2   353  ARG353      0.2290
    179  O          1.2310   37.1530   38.5740 O.2   353  ARG353     -0.2864
    180  CB         3.5760   34.8150   38.2270 C.3   353  ARG353      0.0589
    181  CG         5.0070   34.2090   38.5020 C.2   353  ARG353      0.0162
    182  CD         5.8240   33.3440   37.4220 C.2   353  ARG353      0.1886
    183  NE         5.0950   32.8870   36.2800 N.pl3 353  ARG353     -0.0578
    184  CZ         5.6020   32.2850   35.1920 C.cat 353  ARG353      0.5393
    185  NH1        6.9130   32.0440   35.0310 N.pl3 353  ARG353      0.1358
    186  NH2        4.7500   31.8800   34.2370 N.pl3 353  ARG353      0.1358
    187  N          1.5500   40.1510   40.0500 N.3   356  VAL356     -0.1245
    188  CA         1.8140   40.9030   38.8540 C.3   356  VAL356      0.1561
    189  C          0.6280   40.8870   37.9180 C.2   356  VAL356      0.2260
    190  O          0.3330   41.9150   37.3150 O.2   356  VAL356     -0.2867
    191  CB         3.1440   40.4550   38.1790 C.3   356  VAL356      0.0252
    192  CG1        3.2350   40.8760   36.6970 C.3   356  VAL356      0.0019
    193  CG2        4.3630   41.0250   38.9830 C.3   356  VAL356      0.0019
@<TRIPOS>BOND
     1     1     2    1
     2    10     9    2
     3     9     8    1
     4   121   122    1
     5    11     8    1
     6    11    12    1
     7   124   123    2
     8    14    12   ar
     9    14    16   ar
    10    17    18    1
    11     7     8    1
    12     7     3   am
    13   107   105    1
    14    12    13   ar
    15     2     3    1
    16     2     5    1
    17    18    19    1
    18    18    21    1
    19   122   125    1
    20   122   123    1
    21   167   165    1
    22   125   126    1
    23     3     4    2
    24    19    20    2
    25    16    15   ar
    26   104   103    2
    27     6     5    1
    28   166   165    1
    29    13    15   ar
    30   165   164    2
    31   116   115    2
    32   105   102    1
    33   105   106    1
    34   111   110    2
    35   103   102    1
    36   103   108   am
    37    21    22    1
    38   102   101    1
    39   115   114    1
    40   126   128   ar
    41   126   127   ar
    42    23    22   ar
    43    23    25   ar
    44   110   109    1
    45   110   113   am
    46   109   108    1
    47   109   112    1
    48    22    24   ar
    49   164   163    1
    50   186   184    1
    51    95    94    2
    52   113   114    1
    53    25    26   ar
    54   114   117    1
    55   101    94   am
    56   160   159    2
    57   185   184    1
    58   163   162    1
    59    24    26   ar
    60    27    28    1
    61    94    93    1
    62   184   183    2
    63    28    29    1
    64   152   151    2
    65   117   118    1
    66   159   158    1
    67   158   161    1
    68   158   157    1
    69    38    36    1
    70   155   153    1
    71   183   182    1
    72    37    36    1
    73    36    35    1
    74   162   161    1
    75    29    30    2
    76    29    31   am
    77    93    96    1
    78    93    92    1
    79   192   191    1
    80   151   157   am
    81   151   150    1
    82    91    90    2
    83    96    97    1
    84    31    32    1
    85   118   120    1
    86   118   119    1
    87   190   189    2
    88    92    90   am
    89   182   181    2
    90    90    89    1
    91    62    61    2
    92   153   150    1
    93   153   154    1
    94    35    32    1
    95   150   149    1
    96   189   188    1
    97    32    33    1
    98    99    98    1
    99    99   100    1
   100   191   188    1
   101   191   193    1
   102   180   181    1
   103   180   177    1
   104    97    98    1
   105    89    88    1
   106   179   178    2
   107   154   156    2
   108    61    60    1
   109   188   187    1
   110    60    63    1
   111    60    59    1
   112    64    63    1
   113    64    65    1
   114   177   178    1
   115   177   176    1
   116    66    65    1
   117    66    67    2
   118    88    83   am
   119   144   143    2
   120    33    34    2
   121    33    39   am
   122    69    67    1
   123   147   145    1
   124    67    68    1
   125    77    78    1
   126    77    72   am
   127   176   170   am
   128    39    40    1
   129    78    79    1
   130    83    84    2
   131    83    82    1
   132   143   142    1
   133   171   170    2
   134    81    79   am
   135    81    82    1
   136    71    74    1
   137    71    72    1
   138    71    70    1
   139   170   169    1
   140   142   145    1
   141   142   141    1
   142    74    75    1
   143   145   146    1
   144    79    80    2
   145    72    73    2
   146   173   175    1
   147   173   174    1
   148   173   172    1
   149   140   139    1
   150    45    43    1
   151    82    85    1
   152    86    85    1
   153   146   148    1
   154    75    76    1
   155    40    43    1
   156    40    41    1
   157    70    76    1
   158    55    54    1
   159    55    56    1
   160    53    52    2
   161   172   169    1
   162    54    51    1
   163    43    44    1
   164    42    41    2
   165   169   168    1
   166    85    87    1
   167    49    48    2
   168    41    46   am
   169   139   137   ar
   170   139   138   ar
   171   137   135   ar
   172    52    51    1
   173    58    56   am
   174    56    57    2
   175    51    50    1
   176    46    47    1
   177    48    50   am
   178    48    47    1
   179   138   136   ar
   180   135   134   ar
   181   136   134   ar
   182   134   133    1
   183   133   130    1
   184   129   130    1
   185   130   131    1
   186   131   132    2
