@<TRIPOS>MOLECULE
tmp/2c9tA00.pdb
 116 104 0 0 0
SMALL
GASTEIGER

@<TRIPOS>ATOM
      1  N         46.9060   -1.6790   -2.4910 N.3    34  THR34      -0.1218
      2  CA        46.8790   -1.3850   -3.9070 C.3    34  THR34       0.1862
      3  C         47.4800    0.0240   -4.1020 C.2    34  THR34       0.2287
      4  O         46.8530    1.0430   -3.7960 O.2    34  THR34      -0.2866
      5  CB        45.4220   -1.4320   -4.4720 C.3    34  THR34       0.1770
      6  OG1       44.8550   -2.7420   -4.2670 O.3    34  THR34      -0.2211
      7  CG2       45.4210   -1.1360   -5.9540 C.3    34  THR34       0.0375
      8  N         45.0450    2.2670   -1.8290 N.3    53  TYR53      -0.1241
      9  CA        43.9040    1.6780   -1.1240 C.3    53  TYR53       0.1605
     10  C         44.4480    0.6250   -0.1300 C.2    53  TYR53       0.2264
     11  O         45.2440   -0.2160   -0.4810 O.2    53  TYR53      -0.2867
     12  CB        42.8820    1.0140   -2.0920 C.3    53  TYR53       0.0534
     13  CG        42.4330    1.8410   -3.2950 C.ar   53  TYR53      -0.0201
     14  CD1       42.6610    3.2140   -3.3600 C.ar   53  TYR53      -0.0009
     15  CD2       41.7550    1.2490   -4.3560 C.ar   53  TYR53      -0.0009
     16  CE1       42.2500    3.9670   -4.4340 C.ar   53  TYR53       0.0417
     17  CE2       41.3290    2.0050   -5.4530 C.ar   53  TYR53       0.0417
     18  CZ        41.5850    3.3680   -5.4910 C.ar   53  TYR53       0.1957
     19  OH        41.1730    4.1730   -6.5640 O.3    53  TYR53      -0.2866
     20  N         43.3400   -2.3270    1.8610 N.3    55  GLN55      -0.1245
     21  CA        42.3930   -3.4140    2.0690 C.3    55  GLN55       0.1566
     22  C         42.4900   -3.9380    3.4970 C.2    55  GLN55       0.2260
     23  O         43.5740   -4.2030    3.9820 O.2    55  GLN55      -0.2867
     24  CB        42.6870   -4.5730    1.0940 C.3    55  GLN55       0.0367
     25  CG        42.6890   -4.1940   -0.4070 C.3    55  GLN55       0.0905
     26  CD        43.6740   -5.0210   -1.2660 C.2    55  GLN55       0.2608
     27  OE1       44.4860   -5.8530   -0.6360 O.2    55  GLN55      -0.2717
     28  NE2       43.6880   -4.8940   -2.4850 N.am   55  GLN55      -0.0878
     29  N         40.3630   -6.7420    6.2280 N.3    57  ARG57      -0.1245
     30  CA        39.3770   -7.7780    6.3760 C.3    57  ARG57       0.1563
     31  C         39.5490   -8.4090    7.7420 C.2    57  ARG57       0.2260
     32  O         40.6620   -8.6230    8.1810 O.2    57  ARG57      -0.2867
     33  CB        39.5150   -8.8050    5.2180 C.3    57  ARG57       0.0307
     34  CG        38.5370   -9.9970    5.3030 C.3    57  ARG57       0.0489
     35  CD        38.5510  -10.8610    4.0120 C.3    57  ARG57       0.2205
     36  NE        39.9000  -11.3960    3.7350 N.pl3  57  ARG57      -0.0865
     37  CZ        40.3450  -12.6040    4.0950 C.cat  57  ARG57       0.5346
     38  NH1       39.5610  -13.4540    4.7520 N.pl3  57  ARG57       0.1354
     39  NH2       41.5940  -12.9670    3.7990 N.pl3  57  ARG57       0.1354
     40  N         24.9280  -10.0160    2.0610 N.3    75  ASP75      -0.1239
     41  CA        25.8570   -8.9690    2.3430 C.3    75  ASP75       0.1674
     42  C         25.1900   -7.6060    2.2100 C.2    75  ASP75       0.2266
     43  O         24.1950   -7.4690    1.5020 O.2    75  ASP75      -0.2867
     44  CB        27.0470   -9.0720    1.3920 C.3    75  ASP75       0.1410
     45  CG        26.6420   -9.0400   -0.0880 C.2    75  ASP75       0.3668
     46  OD1       26.2370  -10.0710   -0.6700 O.co2  75  ASP75      -0.2456
     47  OD2       26.7300   -7.9580   -0.6650 O.co2  75  ASP75      -0.2456
     48  N         26.1970   -2.9870    2.6240 N.3    77  ARG77      -0.1245
     49  CA        27.1600   -1.9250    2.7860 C.3    77  ARG77       0.1563
     50  C         26.7040   -0.9540    3.8520 C.2    77  ARG77       0.2260
     51  O         25.5430   -0.6040    3.9050 O.2    77  ARG77      -0.2867
     52  CB        27.3990   -1.2140    1.4540 C.3    77  ARG77       0.0307
     53  CG        28.1850   -2.0940    0.4960 C.3    77  ARG77       0.0489
     54  CD        27.4550   -2.4370   -0.8070 C.3    77  ARG77       0.2205
     55  NE        28.1260   -3.5680   -1.4650 N.pl3  77  ARG77      -0.0865
     56  CZ        27.7600   -4.8450   -1.3410 C.cat  77  ARG77       0.5346
     57  NH1       26.6920   -5.1820   -0.6170 N.pl3  77  ARG77       0.1354
     58  NH2       28.4530   -5.7990   -1.9610 N.pl3  77  ARG77       0.1354
     59  N         31.7870   -3.3300    3.7550 N.3   106  VAL106     -0.1245
     60  CA        30.8920   -4.3860    3.3110 C.3   106  VAL106      0.1561
     61  C         30.8690   -5.4490    4.3910 C.2   106  VAL106      0.2260
     62  O         31.9130   -5.9140    4.8300 O.2   106  VAL106     -0.2867
     63  CB        31.3340   -5.0490    1.9800 C.3   106  VAL106      0.0252
     64  CG1       30.4120   -6.2000    1.6260 C.3   106  VAL106      0.0019
     65  CG2       31.3930   -4.0320    0.8590 C.3   106  VAL106      0.0019
     66  N         29.2700   -9.2570    5.4330 N.3   108  THR108     -0.1218
     67  CA        28.8780  -10.5090    4.8780 C.3   108  THR108      0.1862
     68  C         28.2180  -11.3620    5.9770 C.2   108  THR108      0.2287
     69  O         28.5430  -11.2510    7.1530 O.2   108  THR108     -0.2866
     70  CB        30.1760  -11.1530    4.2840 C.3   108  THR108      0.1770
     71  OG1       30.2550  -10.8100    2.9000 O.3   108  THR108     -0.2211
     72  CG2       30.2100  -12.5950    4.4740 C.3   108  THR108      0.0375
     73  N         34.8950   -6.1840    5.1130 N.3   114  MET114     -0.1245
     74  CA        35.9090   -5.7330    4.1340 C.3   114  MET114      0.1570
     75  C         35.7670   -4.2060    4.0090 C.2   114  MET114      0.2261
     76  O         34.7120   -3.6700    3.6440 O.2   114  MET114     -0.2867
     77  CB        35.7920   -6.4660    2.7450 C.3   114  MET114      0.0387
     78  CG        37.1720   -6.9000    2.0300 C.3   114  MET114      0.0595
     79  SD        38.2120   -5.6590    1.0810 S.3   114  MET114     -0.1393
     80  CE        39.7120   -6.5520    0.4430 C.3   114  MET114      0.0692
     81  N         38.0360   -0.8080    2.6450 N.3   116  ILE116     -0.1245
     82  CA        39.1390   -0.4420    1.7360 C.3   116  ILE116      0.1561
     83  C         39.1990    1.0720    1.6350 C.2   116  ILE116      0.2260
     84  O         38.7820    1.6220    0.6360 O.2   116  ILE116     -0.2867
     85  CB        38.9610   -0.8740    0.2440 C.3   116  ILE116      0.0252
     86  CG1       37.8670   -1.8930    0.0220 C.3   116  ILE116      0.0019
     87  CG2       40.2740   -1.2880   -0.3760 C.3   116  ILE116      0.0019
     88  CD1       38.3340   -3.3300   -0.0340 C.3   116  ILE116      0.0001
     89  N         47.3320  -11.7090    2.3040 N.3   157  ASP157     -0.1239
     90  CA        46.9220  -12.8190    1.4400 C.3   157  ASP157      0.1674
     91  C         47.9820  -13.1320    0.3800 C.2   157  ASP157      0.2266
     92  O         47.9520  -14.1770   -0.2130 O.2   157  ASP157     -0.2867
     93  CB        45.5990  -12.4780    0.7400 C.3   157  ASP157      0.1410
     94  CG        44.3820  -12.6830    1.6290 C.2   157  ASP157      0.3668
     95  OD1       44.4210  -13.6390    2.4560 O.co2 157  ASP157     -0.2456
     96  OD2       43.3960  -11.8910    1.4760 O.co2 157  ASP157     -0.2456
     97  N         49.4970   -4.7620   -5.0110 N.3   162  ASP162     -0.1239
     98  CA        48.7720   -4.6740   -6.2730 C.3   162  ASP162      0.1674
     99  C         49.1380   -3.3870   -6.9990 C.2   162  ASP162      0.2266
    100  O         48.9780   -2.2950   -6.4580 O.2   162  ASP162     -0.2867
    101  CB        47.2820   -4.7290   -6.0110 C.3   162  ASP162      0.1410
    102  CG        46.4640   -4.9260   -7.2550 C.2   162  ASP162      0.3668
    103  OD1       46.9400   -4.8940   -8.4040 O.co2 162  ASP162     -0.2456
    104  OD2       45.2780   -5.1640   -7.0710 O.co2 162  ASP162     -0.2456
    105  N         48.0740   -2.9970  -10.3380 N.3   164  SER164     -0.1202
    106  CA        47.2330   -2.9620  -11.5320 C.3   164  SER164      0.2020
    107  C         46.5880   -1.5800  -11.7900 C.2   164  SER164      0.2619
    108  O         46.3400   -1.2380  -12.9560 O.2   164  SER164     -0.2717
    109  CB        46.1980   -4.1120  -11.5430 C.3   164  SER164      0.2103
    110  OG        45.2590   -3.9810  -10.5050 O.3   164  SER164     -0.2182
    111  N         46.3430   -0.7860  -10.7320 N.am  165  SER165     -0.1951
    112  CA        45.8840    0.5900  -10.9050 C.3   165  SER165      0.1924
    113  C         46.9460    1.6850  -10.6960 C.2   165  SER165      0.2314
    114  O         46.6030    2.8590  -10.6290 O.2   165  SER165     -0.2863
    115  CB        44.6810    0.8750   -9.9960 C.3   165  SER165      0.2116
    116  OG        43.6650   -0.1140  -10.1540 O.3   165  SER165     -0.2180
@<TRIPOS>BOND
     1   108   107    2
     2   107   106    1
     3   107   111   am
     4   109   106    1
     5   109   110    1
     6   106   105    1
     7   112   111    1
     8   112   113    1
     9   112   115    1
    10   113   114    2
    11   116   115    1
    12   103   102   ar
    13   102   104   ar
    14   102   101    1
    15    99   100    2
    16    99    98    1
    17    19    18    1
    18    98   101    1
    19    98    97    1
    20     7     5    1
    21    18    17   ar
    22    18    16   ar
    23    17    15   ar
    24     5     6    1
    25     5     2    1
    26    16    14   ar
    27    15    13   ar
    28     3     2    1
    29     3     4    2
    30     2     1    1
    31    14    13   ar
    32    13    12    1
    33    28    26   am
    34    12     9    1
    35    58    56    1
    36     8     9    1
    37    55    56    2
    38    55    54    1
    39    56    57    1
    40    26    27    2
    41    26    25    1
    42     9    10    1
    43    54    53    1
    44    46    45   ar
    45    47    45   ar
    46    11    10    2
    47    25    24    1
    48    87    85    1
    49    92    91    2
    50    45    44    1
    51    88    86    1
    52    86    85    1
    53    85    82    1
    54    91    90    1
    55    80    79    1
    56    53    52    1
    57    84    83    2
    58    93    90    1
    59    93    94    1
    60    65    63    1
    61    79    78    1
    62    24    21    1
    63    44    41    1
    64    90    89    1
    65    52    49    1
    66    96    94   ar
    67    43    42    2
    68    64    63    1
    69    94    95   ar
    70    83    82    1
    71    82    81    1
    72    20    21    1
    73    63    60    1
    74    78    77    1
    75    40    41    1
    76    21    22    1
    77    42    41    1
    78    48    49    1
    79    77    74    1
    80    49    50    1
    81    71    70    1
    82    60    59    1
    83    60    61    1
    84    22    23    2
    85    76    75    2
    86    36    35    1
    87    36    37    2
    88    39    37    1
    89    50    51    2
    90    75    74    1
    91    35    34    1
    92    37    38    1
    93    74    73    1
    94    70    72    1
    95    70    67    1
    96    61    62    2
    97    67    66    1
    98    67    68    1
    99    33    34    1
   100    33    30    1
   101    68    69    2
   102    29    30    1
   103    30    31    1
   104    31    32    2
