@<TRIPOS>MOLECULE
tmp/2c9zA00.pdb
 162 159 0 0 0
SMALL
GASTEIGER

@<TRIPOS>ATOM
      1  N          6.7470  -12.7210   28.8150 N.3    13  SER13      -0.1202
      2  CA         6.4700  -11.5390   27.9930 C.3    13  SER13       0.2020
      3  C          6.1240  -10.3070   28.8480 C.2    13  SER13       0.2619
      4  O          6.7800  -10.0780   29.8760 O.2    13  SER13      -0.2717
      5  CB         5.5010  -11.8460   26.8280 C.3    13  SER13       0.2103
      6  OG         4.1480  -12.0070   27.2340 O.3    13  SER13      -0.2182
      7  N          5.1360   -9.5130   28.4620 N.am   14  THR14      -0.1952
      8  CA         4.8510   -8.2950   29.2290 C.3    14  THR14       0.1897
      9  C          3.5880   -8.4350   30.0710 C.2    14  THR14       0.2313
     10  O          2.6620   -7.6550   29.9370 O.2    14  THR14      -0.2863
     11  CB         4.7800   -7.0360   28.3200 C.3    14  THR14       0.1794
     12  OG1        6.0290   -6.8870   27.6380 O.3    14  THR14      -0.2208
     13  CG2        4.5000   -5.7490   29.1610 C.3    14  THR14       0.0378
     14  N         10.0160    3.9530   14.0440 N.3   257  TYR257     -0.1241
     15  CA        10.3910    3.1770   15.2060 C.3   257  TYR257      0.1605
     16  C         10.0000    1.7200   14.9750 C.2   257  TYR257      0.2264
     17  O          8.8870    1.4440   14.5360 O.2   257  TYR257     -0.2867
     18  CB         9.7330    3.7260   16.4790 C.3   257  TYR257      0.0534
     19  CG        10.0180    2.8470   17.6910 C.ar  257  TYR257     -0.0201
     20  CD1       11.2950    2.7870   18.2570 C.ar  257  TYR257     -0.0009
     21  CD2        9.0140    2.0410   18.2430 C.ar  257  TYR257     -0.0009
     22  CE1       11.5610    1.9480   19.3730 C.ar  257  TYR257      0.0417
     23  CE2        9.2690    1.2090   19.3300 C.ar  257  TYR257      0.0417
     24  CZ        10.5330    1.1760   19.8940 C.ar  257  TYR257      0.1957
     25  OH        10.7580    0.3500   20.9730 O.3   257  TYR257     -0.2866
     26  N          9.9670   -2.2090   16.7480 N.3   259  SER259     -0.1217
     27  CA        10.1510   -3.1410   17.8590 C.3   259  SER259      0.1889
     28  C          9.1480   -4.2810   17.8320 C.2   259  SER259      0.2288
     29  O          7.9720   -4.0920   17.4660 O.2   259  SER259     -0.2866
     30  CB        10.0660   -2.4390   19.2070 C.3   259  SER259      0.2089
     31  OG        10.1000   -3.4030   20.2440 O.3   259  SER259     -0.2183
     32  N          8.5910   -6.2610   20.7210 N.3   261  GLY261     -0.1210
     33  CA         8.3440   -6.6010   22.1190 C.3   261  GLY261      0.1956
     34  C          9.4300   -7.4840   22.7330 C.2   261  GLY261      0.2613
     35  O         10.5970   -7.4450   22.3130 O.2   261  GLY261     -0.2717
     36  N          9.0390   -8.2870   23.7210 N.am  262  THR262     -0.1938
     37  CA        10.0010   -8.9960   24.5700 C.3   262  THR262      0.2028
     38  C         10.3080  -10.4330   24.1430 C.2   262  THR262      0.2642
     39  O         11.3580  -10.9540   24.5030 O.2   262  THR262     -0.2714
     40  CB         9.5310   -9.0380   26.0510 C.3   262  THR262      0.1808
     41  OG1        8.2660   -9.7010   26.1290 O.3   262  THR262     -0.2208
     42  CG2        9.4300   -7.6320   26.6430 C.3   262  THR262      0.0379
     43  N          9.4030  -11.0780   23.4040 N.am  263  VAL263     -0.1963
     44  CA         9.5470  -12.5220   23.1060 C.3   263  VAL263      0.1727
     45  C          9.4430  -12.8820   21.6230 C.2   263  VAL263      0.2616
     46  O          9.2100  -14.0510   21.2640 O.2   263  VAL263     -0.2715
     47  CB         8.5470  -13.4050   23.9240 C.3   263  VAL263      0.0290
     48  CG1        8.8220  -13.2920   25.4140 C.3   263  VAL263      0.0023
     49  CG2        7.0880  -13.0480   23.6080 C.3   263  VAL263      0.0023
     50  N          9.5970  -11.8750   20.7660 N.am  264  THR264     -0.1951
     51  CA         9.4500  -12.0600   19.3320 C.3   264  THR264      0.1897
     52  C         10.6300  -11.4260   18.5780 C.2   264  THR264      0.2313
     53  O         11.1790  -10.3880   18.9870 O.2   264  THR264     -0.2863
     54  CB         8.1030  -11.5020   18.8310 C.3   264  THR264      0.1794
     55  OG1        7.0580  -11.8890   19.7360 O.3   264  THR264     -0.2208
     56  CG2        7.7680  -12.0350   17.4530 C.3   264  THR264      0.0378
     57  N         14.6750   -1.1850   17.7540 N.3   288  SER288     -0.1217
     58  CA        14.9250   -1.9820   18.9560 C.3   288  SER288      0.1889
     59  C         15.1130   -3.4440   18.5100 C.2   288  SER288      0.2288
     60  O         14.1460   -4.1180   18.1100 O.2   288  SER288     -0.2866
     61  CB        13.7680   -1.8340   19.9520 C.3   288  SER288      0.2089
     62  OG        13.9440   -2.6650   21.0970 O.3   288  SER288     -0.2183
     63  N         17.5140   -2.0020   23.4970 N.3   314  TRP314     -0.1227
     64  CA        16.3310   -1.5950   24.2390 C.3   314  TRP314      0.1737
     65  C         16.1490   -0.0970   24.0990 C.2   314  TRP314      0.2595
     66  O         17.1050    0.6660   24.2100 O.2   314  TRP314     -0.2718
     67  CB        16.4740   -1.9630   25.7240 C.3   314  TRP314      0.0564
     68  CG        15.2090   -1.8900   26.5160 C.ar  314  TRP314      0.0003
     69  CD1       14.8560   -0.9120   27.4000 C.ar  314  TRP314      0.0946
     70  CD2       14.1440   -2.8450   26.5220 C.ar  314  TRP314      0.0152
     71  NE1       13.6320   -1.1950   27.9480 N.ar  314  TRP314     -0.2442
     72  CE2       13.1710   -2.3770   27.4290 C.ar  314  TRP314      0.0810
     73  CE3       13.9110   -4.0530   25.8390 C.ar  314  TRP314      0.0012
     74  CZ2       11.9680   -3.0730   27.6810 C.ar  314  TRP314      0.0191
     75  CZ3       12.7110   -4.7490   26.0840 C.ar  314  TRP314      0.0001
     76  CH2       11.7600   -4.2550   27.0030 C.ar  314  TRP314      0.0015
     77  N         14.9170    0.3240   23.8360 N.am  315  ALA315     -0.1966
     78  CA        14.5970    1.7480   23.7430 C.3   315  ALA315      0.1713
     79  C         13.6190    2.1350   24.8490 C.2   315  ALA315      0.2458
     80  O         12.9030    1.2730   25.3890 O.2   315  ALA315     -0.2730
     81  CB        13.9970    2.0580   22.3770 C.3   315  ALA315      0.0333
     82  N         13.5820    3.4250   25.2020 N.am  316  PRO316     -0.2716
     83  CA        12.4810    3.8580   26.0580 C.3   316  PRO316      0.1536
     84  C         11.2100    3.9920   25.2040 C.2   316  PRO316      0.2598
     85  O         10.8610    5.0920   24.7900 O.2   316  PRO316     -0.2715
     86  CB        12.9530    5.2160   26.5870 C.3   316  PRO316      0.0310
     87  CG        14.0040    5.6920   25.6160 C.3   316  PRO316      0.0237
     88  CD        14.5060    4.5220   24.8350 C.3   316  PRO316      0.0939
     89  N         10.5310    2.8770   24.9460 N.am  317  GLN317     -0.1964
     90  CA         9.5220    2.8320   23.8680 C.3   317  GLN317      0.1733
     91  C          8.3850    3.8460   24.0050 C.2   317  GLN317      0.2616
     92  O          8.0800    4.5760   23.0530 O.2   317  GLN317     -0.2715
     93  CB         8.9660    1.4220   23.6800 C.3   317  GLN317      0.0408
     94  CG         7.8250    1.3440   22.6760 C.3   317  GLN317      0.0908
     95  CD         7.4090   -0.0650   22.3410 C.2   317  GLN317      0.2608
     96  OE1        8.2250   -0.8790   21.9210 O.2   317  GLN317     -0.2717
     97  NE2        6.1160   -0.3440   22.4680 N.am  317  GLN317     -0.0878
     98  N          7.7390    3.8670   25.1690 N.am  318  ALA318     -0.1977
     99  CA         6.5940    4.7330   25.3840 C.3   318  ALA318      0.1597
    100  C          6.9510    6.1950   25.0620 C.2   318  ALA318      0.2287
    101  O          6.2240    6.8530   24.3340 O.2   318  ALA318     -0.2864
    102  CB         6.0790    4.5930   26.7880 C.3   318  ALA318      0.0319
    103  N          4.9540   -5.9320   16.3270 N.3   332  HIS332     -0.1241
    104  CA         4.3930   -7.3060   16.3030 C.3   332  HIS332      0.1621
    105  C          2.8970   -7.3170   16.6300 C.2   332  HIS332      0.2264
    106  O          2.2590   -8.3790   16.5920 O.2   332  HIS332     -0.2867
    107  CB         5.1560   -8.2760   17.2480 C.3   332  HIS332      0.0745
    108  CG         4.9790   -7.9830   18.7110 C.ar  332  HIS332      0.0817
    109  ND1        5.0840   -6.7120   19.2350 N.ar  332  HIS332     -0.2268
    110  CD2        4.7310   -8.8000   19.7680 C.ar  332  HIS332      0.1154
    111  CE1        4.8990   -6.7540   20.5440 C.ar  332  HIS332      0.1986
    112  NE2        4.6760   -8.0070   20.8930 N.ar  332  HIS332     -0.2212
    113  N          1.5770   -6.3920   19.6860 N.3   334  GLY334     -0.1210
    114  CA         1.3310   -6.5930   21.1100 C.3   334  GLY334      0.1956
    115  C          0.4140   -5.5140   21.6660 C.2   334  GLY334      0.2612
    116  O          0.4610   -4.3700   21.2220 O.2   334  GLY334     -0.2717
    117  N         -0.4130   -5.8920   22.6450 N.am  335  TRP335     -0.1962
    118  CA        -1.4300   -5.0100   23.2360 C.3   335  TRP335      0.1771
    119  C         -0.8880   -3.7490   23.9380 C.2   335  TRP335      0.2620
    120  O         -1.4170   -2.6590   23.7520 O.2   335  TRP335     -0.2715
    121  CB        -2.3320   -5.8160   24.1810 C.3   335  TRP335      0.0590
    122  CG        -3.5630   -5.0680   24.6740 C.ar  335  TRP335      0.0006
    123  CD1       -3.8050   -4.6260   25.9510 C.ar  335  TRP335      0.0946
    124  CD2       -4.7150   -4.6990   23.9010 C.ar  335  TRP335      0.0152
    125  NE1       -5.0420   -4.0070   26.0180 N.ar  335  TRP335     -0.2442
    126  CE2       -5.6180   -4.0380   24.7740 C.ar  335  TRP335      0.0810
    127  CE3       -5.0750   -4.8640   22.5540 C.ar  335  TRP335      0.0012
    128  CZ2       -6.8580   -3.5400   24.3420 C.ar  335  TRP335      0.0191
    129  CZ3       -6.3170   -4.3800   22.1340 C.ar  335  TRP335      0.0001
    130  CH2       -7.1910   -3.7300   23.0290 C.ar  335  TRP335      0.0015
    131  N          0.1570   -3.9000   24.7420 N.am  336  ASN336     -0.1958
    132  CA         0.7640   -2.7630   25.4300 C.3   336  ASN336      0.1819
    133  C          1.3990   -1.7810   24.4260 C.2   336  ASN336      0.2622
    134  O          1.1930   -0.5700   24.5300 O.2   336  ASN336     -0.2715
    135  CB         1.7890   -3.2260   26.4740 C.3   336  ASN336      0.1195
    136  CG         1.1860   -4.1610   27.5280 C.2   336  ASN336      0.2630
    137  OD1        1.3980   -5.3780   27.4830 O.2   336  ASN336     -0.2716
    138  ND2        0.4280   -3.6030   28.4630 N.am  336  ASN336     -0.0877
    139  N          2.1460   -2.3070   23.4570 N.am  337  SER337     -0.1950
    140  CA         2.7130   -1.4850   22.3680 C.3   337  SER337      0.1924
    141  C          1.6590   -0.6670   21.6140 C.2   337  SER337      0.2314
    142  O          1.8650    0.5290   21.3080 O.2   337  SER337     -0.2863
    143  CB         3.4870   -2.3580   21.3790 C.3   337  SER337      0.2116
    144  OG         4.6270   -2.9140   22.0120 O.3   337  SER337     -0.2180
    145  N          0.4480    2.3210   23.5270 N.3   340  GLU340     -0.1245
    146  CA         1.5270    3.3050   23.5590 C.3   340  GLU340      0.1567
    147  C          1.6150    4.0720   22.2310 C.2   340  GLU340      0.2260
    148  O          1.9340    5.2660   22.2140 O.2   340  GLU340     -0.2867
    149  CB         2.8610    2.6290   23.8930 C.3   340  GLU340      0.0388
    150  CG         2.9320    2.1120   25.3310 C.3   340  GLU340      0.1160
    151  CD         4.0580    1.1320   25.5470 C.2   340  GLU340      0.3649
    152  OE1        4.8560    0.8990   24.6030 O.co2 340  GLU340     -0.2457
    153  OE2        4.1300    0.5750   26.6670 O.co2 340  GLU340     -0.2457
    154  N         -1.5810  -11.7110   18.4430 N.3   357  GLN357     -0.1245
    155  CA        -1.0050  -10.6950   17.5710 C.3   357  GLN357      0.1566
    156  C         -1.8260  -10.5070   16.2760 C.2   357  GLN357      0.2260
    157  O         -2.0130   -9.3800   15.8150 O.2   357  GLN357     -0.2867
    158  CB         0.4660  -11.0320   17.2730 C.3   357  GLN357      0.0367
    159  CG         1.4320  -10.8340   18.4800 C.3   357  GLN357      0.0905
    160  CD         2.7920  -11.5000   18.2630 C.2   357  GLN357      0.2608
    161  OE1        3.2450  -11.6690   17.1360 O.2   357  GLN357     -0.2717
    162  NE2        3.4480  -11.8740   19.3510 N.am  357  GLN357     -0.0878
@<TRIPOS>BOND
     1    14    15    1
     2    17    16    2
     3    16    15    1
     4    15    18    1
     5   157   156    2
     6   156   155    1
     7   104   103    1
     8   104   105    1
     9   104   107    1
    10    18    19    1
    11   106   105    2
    12    26    27    1
    13   161   160    2
    14   107   108    1
    15   158   155    1
    16   158   159    1
    17    56    54    1
    18    29    28    2
    19   155   154    1
    20    19    21   ar
    21    19    20   ar
    22    57    58    1
    23    28    27    1
    24    27    30    1
    25    60    59    2
    26    21    23   ar
    27    20    22   ar
    28   160   159    1
    29   160   162   am
    30    59    58    1
    31    52    53    2
    32    52    51    1
    33   108   109   ar
    34   108   110   ar
    35    54    51    1
    36    54    55    1
    37    58    61    1
    38    30    31    1
    39   109   111   ar
    40    23    24   ar
    41    51    50    1
    42    22    24   ar
    43   113   114    1
    44   110   112   ar
    45    24    25    1
    46    61    62    1
    47   111   112   ar
    48    32    33    1
    49    50    45   am
    50   114   115    1
    51   116   115    2
    52    46    45    2
    53   142   141    2
    54   143   144    1
    55   143   140    1
    56   141   140    1
    57    45    44    1
    58   115   117   am
    59    96    95    2
    60    33    34    1
    61   129   127   ar
    62   129   130   ar
    63   148   147    2
    64   147   146    1
    65    35    34    2
    66    95    97   am
    67    95    94    1
    68   140   139    1
    69    81    78    1
    70   127   124   ar
    71   117   118    1
    72    94    93    1
    73    34    36   am
    74   130   128   ar
    75    92    91    2
    76    44    43    1
    77    44    47    1
    78   118   119    1
    79   118   121    1
    80    43    38   am
    81   139   133   am
    82    63    64    1
    83   145   146    1
    84   146   149    1
    85    49    47    1
    86    93    90    1
    87    36    37    1
    88    78    77    1
    89    78    79    1
    90   120   119    2
    91    77    65   am
    92    90    91    1
    93    90    89    1
    94   149   150    1
    95   124   122   ar
    96   124   126   ar
    97    47    48    1
    98   119   131   am
    99    91    98   am
   100    65    66    2
   101    65    64    1
   102    38    39    2
   103    38    37    1
   104   121   122    1
   105    64    67    1
   106   101   100    2
   107   128   126   ar
   108   133   134    2
   109   133   132    1
   110    37    40    1
   111   152   151   ar
   112   122   123   ar
   113   131   132    1
   114   126   125   ar
   115    85    84    2
   116    88    82    1
   117    88    87    1
   118    79    82   am
   119    79    80    2
   120    89    84   am
   121   100    99    1
   122    98    99    1
   123    82    83    1
   124    84    83    1
   125   150   151    1
   126    99   102    1
   127   132   135    1
   128   151   153   ar
   129    87    86    1
   130    67    68    1
   131    73    75   ar
   132    73    70   ar
   133   123   125   ar
   134    40    41    1
   135    40    42    1
   136    83    86    1
   137    75    76   ar
   138   135   136    1
   139    68    70   ar
   140    68    69   ar
   141    70    72   ar
   142     5     6    1
   143     5     2    1
   144    76    74   ar
   145    69    71   ar
   146    72    74   ar
   147    72    71   ar
   148   137   136    2
   149   136   138   am
   150    12    11    1
   151     2     1    1
   152     2     3    1
   153    11    13    1
   154    11     8    1
   155     7     3   am
   156     7     8    1
   157     3     4    2
   158     8     9    1
   159    10     9    2
