@<TRIPOS>MOLECULE
tmp/2ca3A00.pdb
 192 190 0 0 0
SMALL
GASTEIGER

@<TRIPOS>ATOM
      1  N         59.4580   11.8180   33.1440 N.3    52  PHE52      -0.1227
      2  CA        60.3930   11.0940   32.2970 C.3    52  PHE52       0.1736
      3  C         61.8190   11.6580   32.3400 C.2    52  PHE52       0.2595
      4  O         62.0120   12.8750   32.2420 O.2    52  PHE52      -0.2718
      5  CB        59.8800   11.0990   30.8560 C.3    52  PHE52       0.0547
      6  CG        60.2340    9.8720   30.1000 C.ar   52  PHE52      -0.0202
      7  CD1       59.3100    8.8290   29.9820 C.ar   52  PHE52      -0.0042
      8  CD2       61.4840    9.7500   29.5010 C.ar   52  PHE52      -0.0042
      9  CE1       59.6210    7.6810   29.2480 C.ar   52  PHE52      -0.0003
     10  CE2       61.8290    8.6050   28.7960 C.ar   52  PHE52      -0.0003
     11  CZ        60.9040    7.5540   28.6720 C.ar   52  PHE52      -0.0000
     12  N         62.8000   10.7610   32.4450 N.am   53  PHE53      -0.1962
     13  CA        64.2060   11.1340   32.6400 C.3    53  PHE53       0.1771
     14  C         64.7580   11.8680   31.4140 C.2    53  PHE53       0.2619
     15  O         64.2040   11.7700   30.2990 O.2    53  PHE53      -0.2715
     16  CB        65.0410    9.8860   32.9780 C.3    53  PHE53       0.0574
     17  CG        65.4970    9.0890   31.7610 C.ar   53  PHE53      -0.0200
     18  CD1       66.7860    9.2640   31.2450 C.ar   53  PHE53      -0.0042
     19  CD2       64.6520    8.1610   31.1530 C.ar   53  PHE53      -0.0042
     20  CE1       67.2290    8.5300   30.1220 C.ar   53  PHE53      -0.0003
     21  CE2       65.0810    7.4080   30.0270 C.ar   53  PHE53      -0.0003
     22  CZ        66.3900    7.5920   29.5220 C.ar   53  PHE53      -0.0000
     23  N         65.8320   12.6150   31.6310 N.am   54  VAL54      -0.1963
     24  CA        66.4100   13.4770   30.5940 C.3    54  VAL54       0.1727
     25  C         67.9270   13.2680   30.5640 C.2    54  VAL54       0.2616
     26  O         68.5710   13.3570   31.6090 O.2    54  VAL54      -0.2715
     27  CB        66.0870   14.9570   30.8960 C.3    54  VAL54       0.0290
     28  CG1       66.8840   15.8880   30.0110 C.3    54  VAL54       0.0023
     29  CG2       64.5930   15.2380   30.7700 C.3    54  VAL54       0.0023
     30  N         68.4920   12.9570   29.3910 N.am   55  MET55      -0.1963
     31  CA        69.9660   12.9030   29.2250 C.3    55  MET55       0.1736
     32  C         70.4150   13.6280   27.9400 C.2    55  MET55       0.2616
     33  O         69.7710   13.5210   26.8860 O.2    55  MET55      -0.2715
     34  CB        70.4960   11.4470   29.2290 C.3    55  MET55       0.0427
     35  CG        70.1970   10.6640   30.5120 C.3    55  MET55       0.0599
     36  SD        71.2120   11.1650   31.9210 S.3    55  MET55      -0.1393
     37  CE        70.0270   11.0660   33.2650 C.3    55  MET55       0.0692
     38  N         71.5030   14.3880   28.0450 N.am   56  TYR56      -0.1960
     39  CA        72.0780   15.0990   26.9170 C.3    56  TYR56       0.1771
     40  C         73.5940   15.0600   27.0720 C.2    56  TYR56       0.2619
     41  O         74.0860   14.8900   28.1670 O.2    56  TYR56      -0.2715
     42  CB        71.6710   16.5730   26.9390 C.3    56  TYR56       0.0574
     43  CG        70.3010   16.9460   26.4210 C.ar   56  TYR56      -0.0198
     44  CD1       70.0200   16.9580   25.0500 C.ar   56  TYR56      -0.0009
     45  CD2       69.3130   17.3960   27.3040 C.ar   56  TYR56      -0.0009
     46  CE1       68.7810   17.3630   24.5840 C.ar   56  TYR56       0.0417
     47  CE2       68.0740   17.7820   26.8520 C.ar   56  TYR56       0.0417
     48  CZ        67.8130   17.7760   25.4870 C.ar   56  TYR56       0.1957
     49  OH        66.5750   18.1900   25.0580 O.3    56  TYR56      -0.2866
     50  N         74.3240   15.2560   25.9810 N.am   57  HIS57      -0.1973
     51  CA        75.7920   15.2960   26.0360 C.3    57  HIS57       0.1656
     52  C         76.3920   16.6700   25.8810 C.2    57  HIS57       0.2291
     53  O         77.4990   16.9120   26.3700 O.2    57  HIS57      -0.2864
     54  CB        76.3680   14.4230   24.9390 C.3    57  HIS57       0.0771
     55  CG        76.0210   12.9860   25.1030 C.ar   57  HIS57       0.0820
     56  ND1       74.8860   12.4310   24.5520 N.ar   57  HIS57      -0.2267
     57  CD2       76.6420   11.9950   25.7780 C.ar   57  HIS57       0.1154
     58  CE1       74.8330   11.1520   24.8720 C.ar   57  HIS57       0.1986
     59  NE2       75.8840   10.8620   25.6150 N.ar   57  HIS57      -0.2212
     60  N         62.7060    3.4340   27.0550 N.3   102  ASN102     -0.1240
     61  CA        63.9500    4.1200   26.7430 C.3   102  ASN102      0.1653
     62  C         64.8100    3.9870   27.9950 C.2   102  ASN102      0.2266
     63  O         64.3340    4.2470   29.1180 O.2   102  ASN102     -0.2867
     64  CB        63.6710    5.5950   26.4710 C.3   102  ASN102      0.1155
     65  CG        64.9000    6.3540   25.9870 C.2   102  ASN102      0.2627
     66  OD1       65.8070    5.7860   25.3570 O.2   102  ASN102     -0.2716
     67  ND2       64.9100    7.6620   26.2390 N.am  102  ASN102     -0.0877
     68  N         68.9620    4.6940   29.3770 N.3   104  CYS104     -0.1221
     69  CA        70.3550    5.0710   29.2030 C.3   104  CYS104      0.1808
     70  C         71.2800    3.8480   29.2450 C.2   104  CYS104      0.2601
     71  O         71.0990    2.9490   30.0760 O.2   104  CYS104     -0.2717
     72  CB        70.7510    6.0420   30.3010 C.3   104  CYS104      0.0970
     73  SG        72.3300    6.8060   29.9970 S.3   104  CYS104     -0.0800
     74  N         72.2600    3.8280   28.3370 N.am  105  SER105     -0.1952
     75  CA        73.3840    2.8860   28.3950 C.3   105  SER105      0.1924
     76  C         73.9280    2.7180   29.8320 C.2   105  SER105      0.2314
     77  O         74.2150    1.6050   30.2760 O.2   105  SER105     -0.2863
     78  CB        74.5240    3.3640   27.4670 C.3   105  SER105      0.2116
     79  OG        74.0830    3.4940   26.1000 O.3   105  SER105     -0.2180
     80  N         70.8290   15.9800   15.4110 N.3   156  GLY156     -0.1225
     81  CA        69.7600   16.8270   15.9460 C.3   156  GLY156      0.1811
     82  C         70.1410   18.2870   16.0080 C.2   156  GLY156      0.2280
     83  O         71.2440   18.6730   15.6170 O.2   156  GLY156     -0.2866
     84  N         70.8190   20.1160   18.6320 N.3   158  ASP158     -0.1239
     85  CA        71.8230   20.4680   19.6350 C.3   158  ASP158      0.1674
     86  C         73.2370   20.4820   19.0390 C.2   158  ASP158      0.2266
     87  O         73.4760   19.9180   17.9760 O.2   158  ASP158     -0.2867
     88  CB        71.7600   19.5410   20.8470 C.3   158  ASP158      0.1410
     89  CG        71.9390   18.0500   20.4850 C.2   158  ASP158      0.3668
     90  OD1       71.6060   17.6250   19.3530 O.co2 158  ASP158     -0.2456
     91  OD2       72.4400   17.3000   21.3590 O.co2 158  ASP158     -0.2456
     92  N         76.9390   15.5400   18.3040 N.3   168  PHE168     -0.1241
     93  CA        76.2420   14.3080   18.6300 C.3   168  PHE168      0.1605
     94  C         75.5170   13.6640   17.4480 C.2   168  PHE168      0.2264
     95  O         74.4220   14.1000   17.0520 O.2   168  PHE168     -0.2867
     96  CB        75.2880   14.5080   19.8050 C.3   168  PHE168      0.0534
     97  CG        74.7700   13.2160   20.3240 C.ar  168  PHE168     -0.0203
     98  CD1       75.5980   12.3930   21.0830 C.ar  168  PHE168     -0.0042
     99  CD2       73.5060   12.7710   19.9700 C.ar  168  PHE168     -0.0042
    100  CE1       75.1500   11.1420   21.5410 C.ar  168  PHE168     -0.0003
    101  CE2       73.0450   11.5360   20.4230 C.ar  168  PHE168     -0.0003
    102  CZ        73.8870   10.7160   21.2110 C.ar  168  PHE168     -0.0000
    103  N         62.6000   18.6520   26.7560 N.3   196  LEU196     -0.1231
    104  CA        63.8670   17.9880   27.0720 C.3   196  LEU196      0.1693
    105  C         63.8760   16.5270   26.6560 C.2   196  LEU196      0.2592
    106  O         64.8860   15.8520   26.7350 O.2   196  LEU196     -0.2718
    107  CB        64.2110   18.1260   28.5640 C.3   196  LEU196      0.0284
    108  CG        64.3930   19.5430   29.1070 C.3   196  LEU196      0.0019
    109  CD1       64.3960   19.5260   30.6620 C.3   196  LEU196      0.0001
    110  CD2       65.6180   20.2250   28.5630 C.3   196  LEU196      0.0001
    111  N         62.7370   16.0500   26.1930 N.am  197  ASN197     -0.1974
    112  CA        62.6600   14.7260   25.6050 C.3   197  ASN197      0.1688
    113  C         62.6370   14.8170   24.0830 C.2   197  ASN197      0.2292
    114  O         62.2490   13.8710   23.4100 O.2   197  ASN197     -0.2864
    115  CB        61.4560   13.9830   26.1730 C.3   197  ASN197      0.1181
    116  CG        61.5870   13.7590   27.6890 C.2   197  ASN197      0.2629
    117  OD1       60.8720   14.3690   28.4760 O.2   197  ASN197     -0.2716
    118  ND2       62.5400   12.9140   28.0890 N.am  197  ASN197     -0.0877
    119  N         61.9630   13.0090   17.5580 N.3   202  ARG202     -0.1245
    120  CA        63.1160   12.2340   18.0020 C.3   202  ARG202      0.1563
    121  C         63.0400   10.8630   17.3620 C.2   202  ARG202      0.2260
    122  O         61.9560   10.4060   16.9990 O.2   202  ARG202     -0.2867
    123  CB        63.0940   12.0650   19.5400 C.3   202  ARG202      0.0307
    124  CG        62.0500   11.0310   20.0040 C.3   202  ARG202      0.0489
    125  CD        62.2200   10.5860   21.4220 C.3   202  ARG202      0.2205
    126  NE        63.6060   10.2640   21.7690 N.pl3 202  ARG202     -0.0865
    127  CZ        64.0730   10.3590   23.0060 C.cat 202  ARG202      0.5346
    128  NH1       63.2610   10.7780   23.9700 N.pl3 202  ARG202      0.1354
    129  NH2       65.3370   10.0670   23.2790 N.pl3 202  ARG202      0.1354
    130  N         69.5810    4.0630   24.8780 N.3   210  GLY210     -0.1210
    131  CA        68.9990    5.3580   24.5250 C.3   210  GLY210      0.1956
    132  C         69.8610    6.2960   23.7140 C.2   210  GLY210      0.2612
    133  O         69.3700    7.2500   23.0980 O.2   210  GLY210     -0.2717
    134  N         71.1520    6.0310   23.7190 N.am  211  THR211     -0.1952
    135  CA        72.1090    6.8070   22.9510 C.3   211  THR211      0.1897
    136  C         71.6820    6.9110   21.4670 C.2   211  THR211      0.2313
    137  O         71.9240    7.9260   20.8240 O.2   211  THR211     -0.2863
    138  CB        73.5410    6.1950   23.1100 C.3   211  THR211      0.1794
    139  OG1       74.5030    7.0320   22.4600 O.3   211  THR211     -0.2208
    140  CG2       73.6080    4.7490   22.5130 C.3   211  THR211      0.0378
    141  N         68.6210    7.1240   20.4110 N.3   213  TRP213     -0.1227
    142  CA        67.2990    7.7400   20.2780 C.3   213  TRP213      0.1737
    143  C         67.4700    9.2520   20.0650 C.2   213  TRP213      0.2595
    144  O         67.0640   10.0540   20.9050 O.2   213  TRP213     -0.2718
    145  CB        66.4320    7.4670   21.5310 C.3   213  TRP213      0.0564
    146  CG        66.0040    6.0250   21.7680 C.ar  213  TRP213      0.0003
    147  CD1       66.7810    4.9030   21.6400 C.ar  213  TRP213      0.0946
    148  CD2       64.7270    5.5670   22.2590 C.ar  213  TRP213      0.0152
    149  NE1       66.0680    3.7880   21.9860 N.ar  213  TRP213     -0.2442
    150  CE2       64.8010    4.1590   22.3520 C.ar  213  TRP213      0.0810
    151  CE3       63.5270    6.2090   22.6120 C.ar  213  TRP213      0.0012
    152  CZ2       63.7240    3.3730   22.8020 C.ar  213  TRP213      0.0191
    153  CZ3       62.4430    5.4300   23.0380 C.ar  213  TRP213      0.0001
    154  CH2       62.5620    4.0200   23.1450 C.ar  213  TRP213      0.0015
    155  N         68.1020    9.6430   18.9630 N.am  214  VAL214     -0.1966
    156  CA        68.4840   11.0570   18.7770 C.3   214  VAL214      0.1727
    157  C         67.2690   11.9950   18.8490 C.2   214  VAL214      0.2616
    158  O         66.2320   11.7610   18.2060 O.2   214  VAL214     -0.2715
    159  CB        69.2420   11.2940   17.4520 C.3   214  VAL214      0.0290
    160  CG1       69.5940   12.7580   17.3280 C.3   214  VAL214      0.0023
    161  CG2       70.5100   10.4480   17.3930 C.3   214  VAL214      0.0023
    162  N         67.4200   13.0530   19.6330 N.am  215  LYS215     -0.1963
    163  CA        66.3520   13.9970   19.9460 C.3   215  LYS215      0.1728
    164  C         66.4950   15.2460   19.0890 C.2   215  LYS215      0.2616
    165  O         67.6120   15.5710   18.6520 O.2   215  LYS215     -0.2715
    166  CB        66.4730   14.3900   21.4290 C.3   215  LYS215      0.0311
    167  CG        66.0170   13.3080   22.4100 C.3   215  LYS215      0.0038
    168  CD        66.0320   13.8140   23.8840 C.3   215  LYS215      0.0206
    169  CE        67.4390   13.8800   24.5090 C.3   215  LYS215      0.1093
    170  NZ        67.3020   14.5590   25.8670 N.3   215  LYS215     -0.1314
    171  N         65.3960   15.9900   18.9190 N.am  216  HIS216     -0.1973
    172  CA        65.4020   17.2270   18.1130 C.3   216  HIS216      0.1656
    173  C         65.9290   16.9000   16.7370 C.2   216  HIS216      0.2291
    174  O         66.6930   17.6720   16.1660 O.2   216  HIS216     -0.2864
    175  CB        66.2600   18.3560   18.7500 C.3   216  HIS216      0.0771
    176  CG        65.9630   18.5980   20.2010 C.ar  216  HIS216      0.0820
    177  ND1       66.9000   18.4070   21.1990 N.ar  216  HIS216     -0.2267
    178  CD2       64.8320   19.0080   20.8210 C.ar  216  HIS216      0.1154
    179  CE1       66.3520   18.6740   22.3730 C.ar  216  HIS216      0.1986
    180  NE2       65.1050   19.0620   22.1690 N.ar  216  HIS216     -0.2212
    181  N         80.4830    4.7500   23.6970 N.3   236  TYR236     -0.1241
    182  CA        79.3850    3.7400   23.6340 C.3   236  TYR236      0.1605
    183  C         79.7990    2.3600   23.1480 C.2   236  TYR236      0.2264
    184  O         79.0490    1.6510   22.4550 O.2   236  TYR236     -0.2867
    185  CB        78.1600    4.2960   22.8930 C.3   236  TYR236      0.0534
    186  CG        77.5580    5.4200   23.7040 C.ar  236  TYR236     -0.0201
    187  CD1       76.8290    5.1370   24.8640 C.ar  236  TYR236     -0.0009
    188  CD2       77.7560    6.7580   23.3520 C.ar  236  TYR236     -0.0009
    189  CE1       76.2960    6.1460   25.6500 C.ar  236  TYR236      0.0417
    190  CE2       77.2160    7.7960   24.1470 C.ar  236  TYR236      0.0417
    191  CZ        76.4890    7.4630   25.2920 C.ar  236  TYR236      0.1957
    192  OH        75.9470    8.4270   26.0960 O.3   236  TYR236     -0.2866
@<TRIPOS>BOND
     1    80    81    1
     2    83    82    2
     3    81    82    1
     4   174   173    2
     5   173   172    1
     6   122   121    2
     7    95    94    2
     8   160   159    1
     9   121   120    1
    10   161   159    1
    11    94    93    1
    12   159   156    1
    13   119   120    1
    14    87    86    2
    15   120   123    1
    16   172   175    1
    17   172   171    1
    18   158   157    2
    19    92    93    1
    20    93    96    1
    21    84    85    1
    22   165   164    2
    23   175   176    1
    24   156   157    1
    25   156   155    1
    26   157   162   am
    27   171   164   am
    28   155   143   am
    29    86    85    1
    30   164   163    1
    31    90    89   ar
    32   123   124    1
    33   162   163    1
    34    85    88    1
    35    96    97    1
    36   163   166    1
    37    99    97   ar
    38    99   101   ar
    39   124   125    1
    40   143   142    1
    41   143   144    2
    42   176   178   ar
    43   176   177   ar
    44   142   141    1
    45   142   145    1
    46    97    98   ar
    47   101   102   ar
    48    89    88    1
    49    89    91   ar
    50   178   180   ar
    51   137   136    2
    52    98   100   ar
    53   177   179   ar
    54   102   100   ar
    55   125   126    1
    56   166   167    1
    57   136   135    1
    58   145   146    1
    59   147   146   ar
    60   147   149   ar
    61   146   148   ar
    62   126   127    2
    63   149   150   ar
    64   180   179   ar
    65   148   150   ar
    66   148   151   ar
    67   150   152   ar
    68   167   168    1
    69   184   183    2
    70   139   138    1
    71   140   138    1
    72   151   153   ar
    73   152   154   ar
    74   185   182    1
    75   185   186    1
    76   135   138    1
    77   135   134    1
    78   127   129    1
    79   127   128    1
    80   153   154   ar
    81   133   132    2
    82   183   182    1
    83   188   186   ar
    84   188   190   ar
    85   114   113    2
    86   182   181    1
    87   186   187   ar
    88   132   134   am
    89   132   131    1
    90   168   169    1
    91   113   112    1
    92   190   191   ar
    93   169   170    1
    94   131   130    1
    95    56    58   ar
    96    56    55   ar
    97    46    44   ar
    98    46    48   ar
    99   187   189   ar
   100    58    59   ar
   101    54    55    1
   102    54    51    1
   103    44    43   ar
   104    49    48    1
   105    55    57   ar
   106   191   189   ar
   107   191   192    1
   108    66    65    2
   109    48    47   ar
   110   112   115    1
   111   112   111    1
   112    59    57   ar
   113    52    51    1
   114    52    53    2
   115    50    51    1
   116    50    40   am
   117    65    67   am
   118    65    64    1
   119    79    78    1
   120   115   116    1
   121   111   105   am
   122    43    42    1
   123    43    45   ar
   124    64    61    1
   125   105   106    2
   126   105   104    1
   127    61    60    1
   128    61    62    1
   129   103   104    1
   130    47    45   ar
   131    33    32    2
   132    39    42    1
   133    39    40    1
   134    39    38    1
   135   104   107    1
   136    40    41    2
   137    78    75    1
   138   116   118   am
   139   116   117    2
   140    32    38   am
   141    32    31    1
   142    62    63    2
   143    74    75    1
   144    74    70   am
   145    75    76    1
   146   110   108    1
   147   107   108    1
   148    11    10   ar
   149    11     9   ar
   150    10     8   ar
   151   108   109    1
   152    69    70    1
   153    69    68    1
   154    69    72    1
   155    31    34    1
   156    31    30    1
   157    34    35    1
   158    70    71    2
   159     9     7   ar
   160    30    25   am
   161     8     6   ar
   162    22    21   ar
   163    22    20   ar
   164    76    77    2
   165     7     6   ar
   166    73    72    1
   167    28    27    1
   168    21    19   ar
   169     6     5    1
   170    20    18   ar
   171    15    14    2
   172    35    36    1
   173    25    24    1
   174    25    26    2
   175    24    27    1
   176    24    23    1
   177    29    27    1
   178     5     2    1
   179    19    17   ar
   180    18    17   ar
   181    14    23   am
   182    14    13    1
   183    17    16    1
   184    36    37    1
   185     4     3    2
   186     2     3    1
   187     2     1    1
   188     3    12   am
   189    12    13    1
   190    13    16    1
