@<TRIPOS>MOLECULE
tmp/2caiA01.pdb
 99 93 0 0 0
SMALL
GASTEIGER

@<TRIPOS>ATOM
      1  N         17.2000  100.9460   74.4000 N.3     7  TYR7       -0.1241
      2  CA        17.1850  102.2850   73.8400 C.3     7  TYR7        0.1605
      3  C         15.7970  102.6580   73.3600 C.2     7  TYR7        0.2264
      4  O         14.9270  101.7960   73.2300 O.2     7  TYR7       -0.2867
      5  CB        18.1830  102.3630   72.6720 C.3     7  TYR7        0.0534
      6  CG        17.9840  101.3040   71.6100 C.ar    7  TYR7       -0.0201
      7  CD1       17.1710  101.5530   70.5010 C.ar    7  TYR7       -0.0009
      8  CD2       18.6120  100.0550   71.7120 C.ar    7  TYR7       -0.0009
      9  CE1       16.9740  100.5880   69.5170 C.ar    7  TYR7        0.0417
     10  CE2       18.4270   99.0640   70.7240 C.ar    7  TYR7        0.0417
     11  CZ        17.6040   99.3510   69.6300 C.ar    7  TYR7        0.1957
     12  OH        17.4160   98.4140   68.6490 O.3     7  TYR7       -0.2866
     13  N         15.5400  104.8820   70.4090 N.3     9  ASN9       -0.1225
     14  CA        15.6610  105.1140   68.9970 C.3     9  ASN9        0.1785
     15  C         16.9210  104.4380   68.4810 C.2     9  ASN9        0.2598
     16  O         18.0230  104.7640   68.8910 O.2     9  ASN9       -0.2718
     17  CB        15.6740  106.6370   68.7660 C.3     9  ASN9        0.1169
     18  CG        15.9310  107.0410   67.3180 C.2     9  ASN9        0.2627
     19  OD1       16.4400  108.1440   67.0640 O.2     9  ASN9       -0.2716
     20  ND2       15.5560  106.1880   66.3690 N.am    9  ASN9       -0.0877
     21  N         16.7360  103.4550   67.6000 N.am   10  GLY10      -0.1942
     22  CA        17.8450  102.7480   66.9660 C.3    10  GLY10       0.2014
     23  C         18.8680  103.6580   66.2940 C.2    10  GLY10       0.2638
     24  O         20.0640  103.3690   66.3030 O.2    10  GLY10      -0.2714
     25  N         18.3960  104.7380   65.6850 N.am   11  ARG11      -0.1977
     26  CA        19.2970  105.7340   65.0750 C.3    11  ARG11       0.1597
     27  C         19.5510  106.9390   65.9870 C.2    11  ARG11       0.2287
     28  O         19.9850  107.9990   65.5320 O.2    11  ARG11      -0.2864
     29  CB        18.7800  106.1650   63.7030 C.3    11  ARG11       0.0334
     30  CG        18.7360  104.9930   62.6770 C.3    11  ARG11       0.0492
     31  CD        18.6070  105.4910   61.2220 C.3    11  ARG11       0.2205
     32  NE        19.3580  106.7250   61.0660 N.pl3  11  ARG11      -0.0865
     33  CZ        18.8420  107.8960   60.7070 C.cat  11  ARG11       0.5346
     34  NH1       17.5590  107.9930   60.3770 N.pl3  11  ARG11       0.1354
     35  NH2       19.6180  108.9680   60.6790 N.pl3  11  ARG11       0.1354
     36  N         23.1320  104.1820   68.6710 N.3    15  GLU15      -0.1245
     37  CA        23.4860  103.6930   67.3330 C.3    15  GLU15       0.1567
     38  C         24.9410  103.2550   67.1950 C.2    15  GLU15       0.2260
     39  O         25.2220  102.2350   66.5490 O.2    15  GLU15      -0.2867
     40  CB        23.1450  104.6970   66.2170 C.3    15  GLU15       0.0388
     41  CG        23.1910  103.9970   64.8310 C.3    15  GLU15       0.1160
     42  CD        22.8260  104.8610   63.6310 C.2    15  GLU15       0.3649
     43  OE1       22.9000  104.2990   62.5050 O.co2  15  GLU15      -0.2457
     44  OE2       22.4690  106.0590   63.7930 O.co2  15  GLU15      -0.2457
     45  N         25.2990   99.8480   68.8200 N.3    18  LEU18      -0.1245
     46  CA        24.7280   98.8840   67.8920 C.3    18  LEU18       0.1561
     47  C         25.6940   98.6490   66.7240 C.2    18  LEU18       0.2260
     48  O         26.0440   97.5180   66.4310 O.2    18  LEU18      -0.2867
     49  CB        23.3760   99.4170   67.4040 C.3    18  LEU18       0.0270
     50  CG        22.0500   98.9590   68.0180 C.3    18  LEU18       0.0019
     51  CD1       22.1300   98.3090   69.4130 C.3    18  LEU18       0.0001
     52  CD2       21.0590  100.0750   67.9500 C.3    18  LEU18       0.0001
     53  N         18.4590   93.2960   70.9070 N.3    30  ASP30      -0.1239
     54  CA        17.8890   94.6310   70.8410 C.3    30  ASP30       0.1674
     55  C         16.7160   94.6860   71.7950 C.2    30  ASP30       0.2266
     56  O         15.9080   93.7660   71.8400 O.2    30  ASP30      -0.2867
     57  CB        17.4020   94.9450   69.4260 C.3    30  ASP30       0.1410
     58  CG        18.5410   95.2080   68.4590 C.2    30  ASP30       0.3668
     59  OD1       18.9800   94.2450   67.7720 O.co2  30  ASP30      -0.2456
     60  OD2       18.9960   96.3760   68.3880 O.co2  30  ASP30      -0.2456
     61  N         14.4070   97.8000   71.9420 N.3    32  ARG32      -0.1245
     62  CA        13.8690   99.1220   71.6350 C.3    32  ARG32       0.1563
     63  C         12.6000   99.3290   72.4570 C.2    32  ARG32       0.2260
     64  O         11.6850   98.5030   72.4260 O.2    32  ARG32      -0.2867
     65  CB        13.6100   99.2830   70.1270 C.3    32  ARG32       0.0307
     66  CG        12.9840  100.6170   69.6910 C.3    32  ARG32       0.0489
     67  CD        11.5170  100.4570   69.3020 C.3    32  ARG32       0.2205
     68  NE        10.6870  101.6670   69.4420 N.pl3  32  ARG32      -0.0865
     69  CZ        10.8410  102.7730   68.7180 C.cat  32  ARG32       0.5346
     70  NH1       11.8070  102.8450   67.8060 N.pl3  32  ARG32       0.1354
     71  NH2       10.0440  103.8120   68.9010 N.pl3  32  ARG32       0.1354
     72  N         23.7990   94.8490   57.7800 N.3   199  TYR199     -0.1227
     73  CA        23.0110   95.5020   58.8220 C.3   199  TYR199      0.1736
     74  C         22.4170   96.8440   58.3340 C.2   199  TYR199      0.2595
     75  O         21.2060   97.0620   58.4060 O.2   199  TYR199     -0.2718
     76  CB        23.9170   95.7180   60.0340 C.3   199  TYR199      0.0548
     77  CG        23.2930   96.4170   61.2200 C.ar  199  TYR199     -0.0200
     78  CD1       23.7150   97.6950   61.6000 C.ar  199  TYR199     -0.0009
     79  CD2       22.2890   95.7960   61.9730 C.ar  199  TYR199     -0.0009
     80  CE1       23.1680   98.3270   62.7040 C.ar  199  TYR199      0.0417
     81  CE2       21.7330   96.4220   63.0560 C.ar  199  TYR199      0.0417
     82  CZ        22.1870   97.6880   63.4230 C.ar  199  TYR199      0.1957
     83  OH        21.6430   98.2890   64.5190 O.3   199  TYR199     -0.2866
     84  N         23.2790   97.7190   57.8210 N.am  200  LEU200     -0.1980
     85  CA        22.8960   99.0810   57.4520 C.3   200  LEU200      0.1596
     86  C         21.9790   99.2080   56.2310 C.2   200  LEU200      0.2287
     87  O         21.2180  100.1740   56.1340 O.2   200  LEU200     -0.2864
     88  CB        24.1400   99.9450   57.2550 C.3   200  LEU200      0.0297
     89  CG        24.9960  100.2270   58.5090 C.3   200  LEU200      0.0022
     90  CD1       26.1500  101.0930   58.0980 C.3   200  LEU200      0.0001
     91  CD2       24.1480  100.8980   59.6280 C.3   200  LEU200      0.0001
     92  N         19.8260   96.7800   55.6340 N.3   202  ASP202     -0.1239
     93  CA        18.6610   95.9630   56.0450 C.3   202  ASP202      0.1674
     94  C         18.4890   94.6200   55.2870 C.2   202  ASP202      0.2266
     95  O         17.3800   94.1070   55.1330 O.2   202  ASP202     -0.2867
     96  CB        17.3780   96.8000   55.9860 C.3   202  ASP202      0.1410
     97  CG        16.4410   96.5120   57.1270 C.2   202  ASP202      0.3668
     98  OD1       16.8300   95.7620   58.0350 O.co2 202  ASP202     -0.2456
     99  OD2       15.3080   97.0390   57.1260 O.co2 202  ASP202     -0.2456
@<TRIPOS>BOND
     1    95    94    2
     2    94    93    1
     3    92    93    1
     4    96    93    1
     5    96    97    1
     6    87    86    2
     7    86    85    1
     8    99    97   ar
     9    97    98   ar
    10    88    85    1
    11    88    89    1
    12    85    84    1
    13    72    73    1
    14    84    74   am
    15    90    89    1
    16    74    75    2
    17    74    73    1
    18    89    91    1
    19    73    76    1
    20    76    77    1
    21    34    33    1
    22    35    33    1
    23    33    32    2
    24    32    31    1
    25    77    78   ar
    26    77    79   ar
    27    31    30    1
    28    78    80   ar
    29    79    81   ar
    30    43    42   ar
    31    30    29    1
    32    80    82   ar
    33    81    82   ar
    34    82    83    1
    35    42    44   ar
    36    42    41    1
    37    29    26    1
    38    41    40    1
    39    26    25    1
    40    26    27    1
    41    28    27    2
    42    25    23   am
    43    40    37    1
    44    23    24    2
    45    23    22    1
    46    20    18   am
    47    48    47    2
    48    39    38    2
    49    47    46    1
    50    22    21    1
    51    19    18    2
    52    38    37    1
    53    18    17    1
    54    37    36    1
    55    49    46    1
    56    49    50    1
    57    21    15   am
    58    59    58   ar
    59    70    69    1
    60    46    45    1
    61    52    50    1
    62    50    51    1
    63    60    58   ar
    64    58    57    1
    65    15    16    2
    66    15    14    1
    67    12    11    1
    68    69    71    1
    69    69    68    2
    70    17    14    1
    71    14    13    1
    72    67    68    1
    73    67    66    1
    74    57    54    1
    75     9    11   ar
    76     9     7   ar
    77    11    10   ar
    78    66    65    1
    79    65    62    1
    80     7     6   ar
    81    10     8   ar
    82    54    53    1
    83    54    55    1
    84     6     8   ar
    85     6     5    1
    86    62    61    1
    87    62    63    1
    88    55    56    2
    89    64    63    2
    90     5     2    1
    91     4     3    2
    92     3     2    1
    93     2     1    1
