@<TRIPOS>MOLECULE
tmp/2canC00.pdb
 145 141 0 0 0
SMALL
GASTEIGER

@<TRIPOS>ATOM
      1  N         18.4270    8.4090  -13.4130 N.3    18  TYR18      -0.1241
      2  CA        19.0760    7.2480  -12.8170 C.3    18  TYR18       0.1605
      3  C         19.7700    6.4410  -13.9020 C.2    18  TYR18       0.2264
      4  O         19.4290    6.5420  -15.0800 O.2    18  TYR18      -0.2867
      5  CB        18.0400    6.3260  -12.1700 C.3    18  TYR18       0.0534
      6  CG        17.6250    6.6740  -10.7670 C.ar   18  TYR18      -0.0201
      7  CD1       18.3680    6.2380   -9.6670 C.ar   18  TYR18      -0.0009
      8  CD2       16.4600    7.3970  -10.5290 C.ar   18  TYR18      -0.0009
      9  CE1       17.9500    6.5160   -8.3620 C.ar   18  TYR18       0.0417
     10  CE2       16.0390    7.6740   -9.2470 C.ar   18  TYR18       0.0417
     11  CZ        16.7810    7.2290   -8.1660 C.ar   18  TYR18       0.1957
     12  OH        16.3150    7.4580   -6.8910 O.3    18  TYR18      -0.2866
     13  N         18.4460    0.5000   -0.4740 N.3    48  TYR48      -0.1241
     14  CA        19.0450    1.5420    0.3640 C.3    48  TYR48       0.1605
     15  C         18.6150    1.4490    1.8350 C.2    48  TYR48       0.2264
     16  O         18.3800    2.4630    2.4930 O.2    48  TYR48      -0.2867
     17  CB        18.7520    2.9400   -0.1920 C.3    48  TYR48       0.0534
     18  CG        19.2040    3.1660   -1.6170 C.ar   48  TYR48      -0.0201
     19  CD1       20.5550    3.2130   -1.9450 C.ar   48  TYR48      -0.0009
     20  CD2       18.2740    3.3630   -2.6350 C.ar   48  TYR48      -0.0009
     21  CE1       20.9650    3.4520   -3.2590 C.ar   48  TYR48       0.0417
     22  CE2       18.6730    3.6050   -3.9430 C.ar   48  TYR48       0.0417
     23  CZ        20.0170    3.6510   -4.2500 C.ar   48  TYR48       0.1957
     24  OH        20.3980    3.9110   -5.5480 O.3    48  TYR48      -0.2866
     25  N          8.0750   10.6650    3.0190 N.3   104  THR104     -0.1203
     26  CA         9.4260   10.3690    2.5630 C.3   104  THR104      0.1994
     27  C         10.5080   10.8280    3.5470 C.2   104  THR104      0.2618
     28  O         10.2300   11.5450    4.5080 O.2   104  THR104     -0.2717
     29  CB         9.6820   11.0060    1.1930 C.3   104  THR104      0.1784
     30  OG1        9.6320   12.4280    1.3120 O.3   104  THR104     -0.2211
     31  CG2        8.6210   10.5650    0.2040 C.3   104  THR104      0.0376
     32  N         11.7440   10.3990    3.3000 N.am  105  GLY105     -0.1942
     33  CA        12.8620   10.7720    4.1490 C.3   105  GLY105      0.2014
     34  C         13.1860   12.2560    4.1350 C.2   105  GLY105      0.2638
     35  O         13.3910   12.8450    5.1940 O.2   105  GLY105     -0.2714
     36  N         13.1990   12.8700    2.9520 N.am  106  VAL106     -0.1977
     37  CA        13.5000   14.3040    2.8450 C.3   106  VAL106      0.1596
     38  C         12.4950   15.1040    3.6480 C.2   106  VAL106      0.2287
     39  O         12.8500   16.0860    4.2810 O.2   106  VAL106     -0.2864
     40  CB        13.4210   14.8740    1.4050 C.3   106  VAL106      0.0276
     41  CG1       14.3900   16.0220    1.2540 C.3   106  VAL106      0.0022
     42  CG2       13.6890   13.8290    0.3870 C.3   106  VAL106      0.0022
     43  N         23.8600   13.5200    3.2860 N.3   140  PHE140     -0.1227
     44  CA        22.8450   13.2880    2.2750 C.3   140  PHE140      0.1736
     45  C         21.5360   13.0650    3.0000 C.2   140  PHE140      0.2595
     46  O         21.4290   12.1440    3.8140 O.2   140  PHE140     -0.2718
     47  CB        23.1360   12.0680    1.4070 C.3   140  PHE140      0.0547
     48  CG        22.1300   11.8840    0.3030 C.ar  140  PHE140     -0.0202
     49  CD1       20.9570   11.1570    0.5150 C.ar  140  PHE140     -0.0042
     50  CD2       22.3320   12.4800   -0.9410 C.ar  140  PHE140     -0.0042
     51  CE1       19.9980   11.0310   -0.5030 C.ar  140  PHE140     -0.0003
     52  CE2       21.3800   12.3580   -1.9620 C.ar  140  PHE140     -0.0003
     53  CZ        20.2100   11.6290   -1.7390 C.ar  140  PHE140     -0.0000
     54  N         20.5610   13.9370    2.7550 N.am  141  TRP141     -0.1962
     55  CA        19.2630   13.7850    3.3940 C.3   141  TRP141      0.1771
     56  C         18.0970   14.0210    2.4500 C.2   141  TRP141      0.2620
     57  O         16.9830   14.2640    2.8940 O.2   141  TRP141     -0.2715
     58  CB        19.1420   14.6350    4.6690 C.3   141  TRP141      0.0590
     59  CG        19.3430   16.1240    4.5040 C.ar  141  TRP141      0.0006
     60  CD1       20.5380   16.7950    4.4250 C.ar  141  TRP141      0.0946
     61  CD2       18.3210   17.1350    4.4990 C.ar  141  TRP141      0.0152
     62  NE1       20.3180   18.1490    4.3840 N.ar  141  TRP141     -0.2442
     63  CE2       18.9690   18.3880    4.4290 C.ar  141  TRP141      0.0810
     64  CE3       16.9180   17.0990    4.5610 C.ar  141  TRP141      0.0012
     65  CZ2       18.2640   19.6020    4.4200 C.ar  141  TRP141      0.0191
     66  CZ3       16.2170   18.3060    4.5560 C.ar  141  TRP141      0.0001
     67  CH2       16.8940   19.5390    4.4860 C.ar  141  TRP141      0.0015
     68  N         18.3510   13.9250    1.1480 N.am  142  GLY142     -0.1940
     69  CA        17.2830   14.1120    0.1850 C.3   142  GLY142      0.2014
     70  C         17.6550   14.8270   -1.0920 C.2   142  GLY142      0.2638
     71  O         18.8240   15.1410   -1.3180 O.2   142  GLY142     -0.2714
     72  N         16.6380   15.1610   -1.8840 N.am  143  ARG143     -0.1977
     73  CA        16.8280   15.8320   -3.1720 C.3   143  ARG143      0.1597
     74  C         16.0750   17.1560   -3.3410 C.2   143  ARG143      0.2287
     75  O         15.9500   17.6620   -4.4580 O.2   143  ARG143     -0.2864
     76  CB        16.4030   14.9020   -4.3000 C.3   143  ARG143      0.0334
     77  CG        17.2090   13.6440   -4.4010 C.3   143  ARG143      0.0492
     78  CD        18.6380   13.9460   -4.7550 C.3   143  ARG143      0.2205
     79  NE        19.2670   12.7860   -5.3690 N.pl3 143  ARG143     -0.0865
     80  CZ        20.4160   12.8240   -6.0330 C.cat 143  ARG143      0.5346
     81  NH1       21.0720   13.9670   -6.1730 N.pl3 143  ARG143      0.1354
     82  NH2       20.9060   11.7170   -6.5680 N.pl3 143  ARG143      0.1354
     83  N         24.4650   12.3470   10.4370 N.3   193  GLU193     -0.1245
     84  CA        24.1570   10.9420   10.2620 C.3   193  GLU193      0.1567
     85  C         25.1770   10.2420   11.1670 C.2   193  GLU193      0.2260
     86  O         26.3560   10.6100   11.1800 O.2   193  GLU193     -0.2867
     87  CB        24.3870   10.5250    8.8110 C.3   193  GLU193      0.0388
     88  CG        23.4620   11.1700    7.8140 C.3   193  GLU193      0.1160
     89  CD        23.9790   11.0560    6.3940 C.2   193  GLU193      0.3649
     90  OE1       23.8730    9.9620    5.8010 O.co2 193  GLU193     -0.2457
     91  OE2       24.5000   12.0640    5.8680 O.co2 193  GLU193     -0.2457
     92  N         25.7620    7.0800    5.0940 N.3   197  GLY197     -0.1210
     93  CA        25.4290    6.0490    4.1250 C.3   197  GLY197      0.1956
     94  C         25.8350    6.2930    2.6830 C.2   197  GLY197      0.2611
     95  O         26.7850    5.6690    2.1990 O.2   197  GLY197     -0.2717
     96  N         25.1570    7.2230    2.0070 N.am  198  GLU198     -0.1979
     97  CA        25.4390    7.5130    0.5970 C.3   198  GLU198      0.1602
     98  C         26.8640    7.9950    0.3400 C.2   198  GLU198      0.2287
     99  O         27.3630    7.9030   -0.7870 O.2   198  GLU198     -0.2864
    100  CB        24.4200    8.5060    0.0150 C.3   198  GLU198      0.0415
    101  CG        22.9420    8.1020    0.1820 C.3   198  GLU198      0.1163
    102  CD        22.5730    6.7470   -0.4460 C.2   198  GLU198      0.3649
    103  OE1       22.6090    6.6210   -1.6910 O.co2 198  GLU198     -0.2457
    104  OE2       22.2040    5.8150    0.3070 O.co2 198  GLU198     -0.2457
    105  N         20.0990   12.0440   12.0580 N.3   226  ASP226     -0.1239
    106  CA        19.4300   11.4930   10.8920 C.3   226  ASP226      0.1674
    107  C         19.6520    9.9820   10.9100 C.2   226  ASP226      0.2266
    108  O         20.7160    9.4970   10.5350 O.2   226  ASP226     -0.2867
    109  CB        19.9910   12.1170    9.6080 C.3   226  ASP226      0.1410
    110  CG        19.2650   11.6440    8.3530 C.2   226  ASP226      0.3668
    111  OD1       18.3950   10.7510    8.4540 O.co2 226  ASP226     -0.2456
    112  OD2       19.5740   12.1640    7.2540 O.co2 226  ASP226     -0.2456
    113  N         17.5600    7.8490    9.3040 N.3   228  ILE228     -0.1231
    114  CA        16.7250    7.3320    8.2220 C.3   228  ILE228      0.1692
    115  C         17.2750    6.0630    7.5620 C.2   228  ILE228      0.2592
    116  O         16.5040    5.2100    7.1140 O.2   228  ILE228     -0.2718
    117  CB        16.4320    8.4450    7.1700 C.3   228  ILE228      0.0266
    118  CG1       15.5630    9.5260    7.8160 C.3   228  ILE228      0.0019
    119  CG2       15.7450    7.8740    5.9320 C.3   228  ILE228      0.0020
    120  CD1       15.3140   10.7400    6.9490 C.3   228  ILE228      0.0001
    121  N         18.5960    5.9220    7.5220 N.am  229  GLN229     -0.1966
    122  CA        19.2020    4.7420    6.9160 C.3   229  GLN229      0.1733
    123  C         19.9600    3.8690    7.9120 C.2   229  GLN229      0.2617
    124  O         20.0990    2.6650    7.7060 O.2   229  GLN229     -0.2715
    125  CB        20.1280    5.1320    5.7670 C.3   229  GLN229      0.0408
    126  CG        20.6570    3.9350    4.9890 C.3   229  GLN229      0.0908
    127  CD        21.6230    4.3110    3.8850 C.2   229  GLN229      0.2608
    128  OE1       21.5300    5.3860    3.2960 O.2   229  GLN229     -0.2717
    129  NE2       22.5640    3.4180    3.6010 N.am  229  GLN229     -0.0878
    130  N         20.4600    4.4700    8.9870 N.am  230  THR230     -0.1951
    131  CA        21.2230    3.7220    9.9850 C.3   230  THR230      0.1897
    132  C         20.3780    3.1330   11.1120 C.2   230  THR230      0.2313
    133  O         20.8150    2.2070   11.7950 O.2   230  THR230     -0.2863
    134  CB        22.3240    4.5920   10.6360 C.3   230  THR230      0.1794
    135  OG1       21.7150    5.6630   11.3620 O.3   230  THR230     -0.2208
    136  CG2       23.2620    5.1680    9.5910 C.3   230  THR230      0.0378
    137  N         12.6220    5.0010    5.5620 N.3   255  LYS255     -0.1245
    138  CA        12.9400    3.7490    4.8790 C.3   255  LYS255      0.1561
    139  C         12.3440    2.4430    5.4270 C.2   255  LYS255      0.2260
    140  O         11.2450    2.0480    5.0240 O.2   255  LYS255     -0.2867
    141  CB        14.4540    3.6270    4.7320 C.3   255  LYS255      0.0271
    142  CG        15.0150    4.5030    3.6430 C.3   255  LYS255      0.0035
    143  CD        16.5100    4.6400    3.7700 C.3   255  LYS255      0.0206
    144  CE        17.0960    5.1900    2.4940 C.3   255  LYS255      0.1093
    145  NZ        16.4390    6.4540    2.1210 N.3   255  LYS255     -0.1314
@<TRIPOS>BOND
     1     4     3    2
     2     3     2    1
     3     1     2    1
     4     2     5    1
     5     5     6    1
     6     6     8   ar
     7     6     7   ar
     8     8    10   ar
     9     7     9   ar
    10    10    11   ar
    11     9    11   ar
    12    11    12    1
    13    82    80    1
    14    81    80    1
    15    80    79    2
    16    24    23    1
    17    79    78    1
    18    78    77    1
    19    75    74    2
    20    77    76    1
    21    76    73    1
    22    23    22   ar
    23    23    21   ar
    24    22    20   ar
    25    74    73    1
    26    21    19   ar
    27    73    72    1
    28    20    18   ar
    29    52    53   ar
    30    52    50   ar
    31    19    18   ar
    32    72    70   am
    33    53    51   ar
    34   103   102   ar
    35    18    17    1
    36    71    70    2
    37    70    69    1
    38    50    48   ar
    39    99    98    2
    40    51    49   ar
    41    13    14    1
    42   102   101    1
    43   102   104   ar
    44    17    14    1
    45   100   101    1
    46   100    97    1
    47    69    68    1
    48    31    29    1
    49    48    49   ar
    50    48    47    1
    51    98    97    1
    52    14    15    1
    53    42    40    1
    54    97    96    1
    55    68    56   am
    56    29    30    1
    57    29    26    1
    58    41    40    1
    59    40    37    1
    60    47    44    1
    61    15    16    2
    62    96    94   am
    63   145   144    1
    64    95    94    2
    65    44    45    1
    66    44    43    1
    67    56    57    2
    68    56    55    1
    69   144   143    1
    70    26    25    1
    71    26    27    1
    72    94    93    1
    73    54    45   am
    74    54    55    1
    75    37    36    1
    76    37    38    1
    77    36    34   am
    78    45    46    2
    79   128   127    2
    80    32    27   am
    81    32    33    1
    82    55    58    1
    83    27    28    2
    84   129   127   am
    85   142   143    1
    86   142   141    1
    87    38    39    2
    88   127   126    1
    89    93    92    1
    90    34    33    1
    91    34    35    2
    92    62    60   ar
    93    62    63   ar
    94    65    63   ar
    95    65    67   ar
    96    60    59   ar
    97    63    61   ar
    98    67    66   ar
    99    61    59   ar
   100    61    64   ar
   101    59    58    1
   102    66    64   ar
   103   141   138    1
   104   138   139    1
   105   138   137    1
   106   126   125    1
   107   140   139    2
   108   125   122    1
   109    90    89   ar
   110    91    89   ar
   111   119   117    1
   112    89    88    1
   113   122   121    1
   114   122   123    1
   115   120   118    1
   116   116   115    2
   117   117   118    1
   118   117   114    1
   119   112   110   ar
   120   121   115   am
   121   115   114    1
   122   124   123    2
   123    88    87    1
   124   123   130   am
   125   114   113    1
   126   110   111   ar
   127   110   109    1
   128    87    84    1
   129   130   131    1
   130   136   134    1
   131   109   106    1
   132   131   134    1
   133   131   132    1
   134    84    83    1
   135    84    85    1
   136   108   107    2
   137   134   135    1
   138   106   107    1
   139   106   105    1
   140   132   133    2
   141    85    86    2
