@<TRIPOS>MOLECULE
tmp/2canB00.pdb
 78 76 0 0 0
SMALL
GASTEIGER

@<TRIPOS>ATOM
      1  N         64.6530   51.9140    7.5190 N.3    75  SER75      -0.1202
      2  CA        63.2060   51.8910    7.7440 C.3    75  SER75       0.2020
      3  C         62.6460   52.6150    6.5280 C.2    75  SER75       0.2619
      4  O         63.3960   53.2930    5.8150 O.2    75  SER75      -0.2717
      5  CB        62.7890   52.6000    9.0400 C.3    75  SER75       0.2103
      6  OG        62.5020   53.9790    8.8420 O.3    75  SER75      -0.2182
      7  N         61.3530   52.4720    6.2640 N.am   76  ARG76      -0.1965
      8  CA        60.7690   53.1320    5.0980 C.3    76  ARG76       0.1729
      9  C         60.4040   54.6030    5.3490 C.2    76  ARG76       0.2616
     10  O         59.7280   55.2370    4.5330 O.2    76  ARG76      -0.2715
     11  CB        59.5720   52.3320    4.5880 C.3    76  ARG76       0.0348
     12  CG        59.9220   50.9320    4.0880 C.3    76  ARG76       0.0492
     13  CD        60.0930   50.8970    2.5820 C.3    76  ARG76       0.2205
     14  NE        58.8970   51.3740    1.8880 N.pl3  76  ARG76      -0.0865
     15  CZ        58.0700   50.5960    1.1950 C.cat  76  ARG76       0.5346
     16  NH1       58.3050   49.2940    1.1020 N.pl3  76  ARG76       0.1354
     17  NH2       57.0130   51.1210    0.5800 N.pl3  76  ARG76       0.1354
     18  N         60.8590   55.1350    6.4830 N.am   77  ALA77      -0.1977
     19  CA        60.6130   56.5270    6.8300 C.3    77  ALA77       0.1597
     20  C         61.4820   57.4030    5.9380 C.2    77  ALA77       0.2287
     21  O         61.1650   58.5730    5.7070 O.2    77  ALA77      -0.2864
     22  CB        60.9470   56.7710    8.2750 C.3    77  ALA77       0.0319
     23  N         58.3630   40.7740    5.0250 N.3   103  ASN103     -0.1240
     24  CA        59.4140   39.8610    5.4590 C.3   103  ASN103      0.1653
     25  C         59.0640   38.3720    5.4090 C.2   103  ASN103      0.2266
     26  O         59.6560   37.6090    4.6450 O.2   103  ASN103     -0.2867
     27  CB        59.8620   40.2440    6.8650 C.3   103  ASN103      0.1155
     28  CG        60.0990   41.7360    7.0080 C.2   103  ASN103      0.2627
     29  OD1       61.0320   42.2850    6.4310 O.2   103  ASN103     -0.2716
     30  ND2       59.2420   42.4020    7.7710 N.am  103  ASN103     -0.0877
     31  N         53.0030   37.4300    6.5080 N.3   107  GLU107     -0.1245
     32  CA        52.8430   38.8590    6.2780 C.3   107  GLU107      0.1567
     33  C         52.3900   39.1310    4.8520 C.2   107  GLU107      0.2260
     34  O         51.5970   40.0380    4.6190 O.2   107  GLU107     -0.2867
     35  CB        54.1360   39.6140    6.5630 C.3   107  GLU107      0.0388
     36  CG        54.5900   39.5450    8.0100 C.3   107  GLU107      0.1160
     37  CD        55.7720   40.4660    8.3070 C.2   107  GLU107      0.3649
     38  OE1       56.6340   40.6680    7.4200 O.co2 107  GLU107     -0.2457
     39  OE2       55.8370   40.9910    9.4340 O.co2 107  GLU107     -0.2457
     40  N         49.6210   51.0390    5.8560 N.3   282  HIS282     -0.1226
     41  CA        50.1870   49.7000    5.9730 C.3   282  HIS282      0.1752
     42  C         51.7050   49.7620    5.9110 C.2   282  HIS282      0.2597
     43  O         52.2570   50.5770    5.1690 O.2   282  HIS282     -0.2718
     44  CB        49.6590   48.7910    4.8630 C.3   282  HIS282      0.0759
     45  CG        50.0670   47.3610    5.0250 C.ar  282  HIS282      0.0818
     46  ND1       50.7500   46.6640    4.0510 N.ar  282  HIS282     -0.2268
     47  CD2       49.9120   46.5010    6.0610 C.ar  282  HIS282      0.1154
     48  CE1       50.9980   45.4400    4.4800 C.ar  282  HIS282      0.1986
     49  NE2       50.5000   45.3160    5.6950 N.ar  282  HIS282     -0.2212
     50  N         52.3780   48.8930    6.6650 N.am  283  GLY283     -0.1942
     51  CA        53.8300   48.8950    6.6570 C.3   283  GLY283      0.2014
     52  C         54.4730   47.7410    7.3990 C.2   283  GLY283      0.2640
     53  O         53.8020   46.7490    7.7100 O.2   283  GLY283     -0.2714
     54  N         55.7720   47.8770    7.6600 N.am  284  SER284     -0.1935
     55  CA        56.5850   46.8730    8.3470 C.3   284  SER284      0.2055
     56  C         57.9480   47.5100    8.6170 C.2   284  SER284      0.2644
     57  O         58.4770   48.2350    7.7670 O.2   284  SER284     -0.2714
     58  CB        56.7610   45.6420    7.4480 C.3   284  SER284      0.2130
     59  OG        57.6900   44.7040    7.9800 O.3   284  SER284     -0.2179
     60  N         58.5210   47.2530    9.7900 N.am  285  THR285     -0.1936
     61  CA        59.8250   47.8240   10.1250 C.3   285  THR285      0.2028
     62  C         60.9100   47.3850    9.1360 C.2   285  THR285      0.2642
     63  O         61.4940   48.2170    8.4350 O.2   285  THR285     -0.2714
     64  CB        60.2620   47.4790   11.5850 C.3   285  THR285      0.1808
     65  OG1       59.3280   48.0420   12.5180 O.3   285  THR285     -0.2208
     66  CG2       61.6490   48.0380   11.8790 C.3   285  THR285      0.0379
     67  N         61.1510   46.0800    9.0470 N.am  286  TYR286     -0.1973
     68  CA        62.1760   45.5530    8.1450 C.3   286  TYR286      0.1639
     69  C         61.7560   45.3730    6.6890 C.2   286  TYR286      0.2290
     70  O         62.6020   45.1570    5.8180 O.2   286  TYR286     -0.2864
     71  CB        62.7230   44.2340    8.6850 C.3   286  TYR286      0.0560
     72  CG        63.6720   44.4080    9.8390 C.ar  286  TYR286     -0.0198
     73  CD1       63.2010   44.5990   11.1320 C.ar  286  TYR286     -0.0009
     74  CD2       65.0490   44.3600    9.6330 C.ar  286  TYR286     -0.0009
     75  CE1       64.0760   44.7380   12.2000 C.ar  286  TYR286      0.0417
     76  CE2       65.9370   44.4950   10.6880 C.ar  286  TYR286      0.0417
     77  CZ        65.4450   44.6800   11.9720 C.ar  286  TYR286      0.1957
     78  OH        66.3240   44.7720   13.0270 O.3   286  TYR286     -0.2866
@<TRIPOS>BOND
     1    17    15    1
     2    16    15    1
     3    15    14    2
     4    14    13    1
     5    13    12    1
     6    46    48   ar
     7    46    45   ar
     8    12    11    1
     9    48    49   ar
    10    10     9    2
    11    11     8    1
    12    34    33    2
    13    26    25    2
    14    33    32    1
    15    44    45    1
    16    44    41    1
    17    45    47   ar
    18    23    24    1
    19     8     9    1
    20     8     7    1
    21    43    42    2
    22     9    18   am
    23    25    24    1
    24    24    27    1
    25    49    47   ar
    26    21    20    2
    27     4     3    2
    28    70    69    2
    29    40    41    1
    30    42    41    1
    31    42    50   am
    32    20    19    1
    33     7     3   am
    34    32    31    1
    35    32    35    1
    36    29    28    2
    37    18    19    1
    38     3     2    1
    39    35    36    1
    40    51    50    1
    41    51    52    1
    42    69    68    1
    43    19    22    1
    44    27    28    1
    45    28    30   am
    46    52    54   am
    47    52    53    2
    48    38    37   ar
    49    58    59    1
    50    58    55    1
    51     1     2    1
    52    54    55    1
    53     2     5    1
    54    57    56    2
    55    36    37    1
    56    68    71    1
    57    68    67    1
    58    37    39   ar
    59    55    56    1
    60    63    62    2
    61    56    60   am
    62    71    72    1
    63     6     5    1
    64    67    62   am
    65    62    61    1
    66    74    72   ar
    67    74    76   ar
    68    60    61    1
    69    72    73   ar
    70    61    64    1
    71    76    77   ar
    72    73    75   ar
    73    64    66    1
    74    64    65    1
    75    77    75   ar
    76    77    78    1
