@<TRIPOS>MOLECULE
tmp/2cb1A00.pdb
 134 124 0 0 0
SMALL
GASTEIGER

@<TRIPOS>ATOM
      1  N         28.3000    5.4020   61.2860 N.3    79  SER79      -0.1202
      2  CA        29.2980    6.4680   61.1970 C.3    79  SER79       0.2020
      3  C         28.8560    7.5500   60.2080 C.2    79  SER79       0.2619
      4  O         27.8540    7.3470   59.5260 O.2    79  SER79      -0.2717
      5  CB        30.6840    5.9430   60.7650 C.3    79  SER79       0.2103
      6  OG        30.6130    5.5260   59.4250 O.3    79  SER79      -0.2182
      7  N         29.5120    8.7270   60.2650 N.am   80  GLY80      -0.1942
      8  CA        29.4210    9.7930   59.2730 C.3    80  GLY80       0.2014
      9  C         29.6500    9.2740   57.8620 C.2    80  GLY80       0.2638
     10  O         28.8250    9.5450   56.9680 O.2    80  GLY80      -0.2714
     11  N         30.7230    8.4870   57.6620 N.am   81  GLN81      -0.1977
     12  CA        30.9820    7.8860   56.3570 C.3    81  GLN81       0.1601
     13  C         29.8070    7.0490   55.8950 C.2    81  GLN81       0.2287
     14  O         29.4510    7.1070   54.7040 O.2    81  GLN81      -0.2864
     15  CB        32.2700    7.0310   56.3830 C.3    81  GLN81       0.0394
     16  CG        33.4900    7.9410   56.4250 C.3    81  GLN81       0.0908
     17  CD        33.5880    8.7630   55.1730 C.2    81  GLN81       0.2608
     18  OE1       33.6090    8.2200   54.0370 O.2    81  GLN81      -0.2717
     19  NE2       33.6420   10.0390   55.3300 N.am   81  GLN81      -0.0878
     20  N         26.9570    9.4370   54.6190 N.3    84  THR84      -0.1218
     21  CA        27.2600   10.0000   53.2840 C.3    84  THR84       0.1862
     22  C         27.0310    8.8530   52.2620 C.2    84  THR84       0.2287
     23  O         26.3360    9.0150   51.2580 O.2    84  THR84      -0.2866
     24  CB        28.7230   10.3920   53.1890 C.3    84  THR84       0.1770
     25  OG1       28.9980   11.4650   54.1270 O.3    84  THR84      -0.2211
     26  CG2       29.1100   10.8480   51.7720 C.3    84  THR84       0.0375
     27  N         36.0380   16.6790   52.9100 N.3   105  PHE105     -0.1241
     28  CA        36.6540   15.7040   53.8120 C.3   105  PHE105      0.1605
     29  C         37.3870   14.5950   53.0030 C.2   105  PHE105      0.2264
     30  O         36.8270   14.0880   52.0140 O.2   105  PHE105     -0.2867
     31  CB        35.5200   15.0770   54.6420 C.3   105  PHE105      0.0534
     32  CG        35.9680   14.1900   55.7310 C.ar  105  PHE105     -0.0203
     33  CD1       36.6140   14.7010   56.8460 C.ar  105  PHE105     -0.0042
     34  CD2       35.6880   12.8000   55.6730 C.ar  105  PHE105     -0.0042
     35  CE1       36.9950   13.8800   57.8680 C.ar  105  PHE105     -0.0003
     36  CE2       36.0670   11.9400   56.7440 C.ar  105  PHE105     -0.0003
     37  CZ        36.7320   12.4760   57.8130 C.ar  105  PHE105     -0.0000
     38  N         35.5830   11.6040   52.2450 N.3   108  THR108     -0.1218
     39  CA        34.4580   11.7320   51.2770 C.3   108  THR108      0.1862
     40  C         35.0630   11.6250   49.8590 C.2   108  THR108      0.2287
     41  O         34.5430   10.9850   49.0000 O.2   108  THR108     -0.2866
     42  CB        33.7560   13.1070   51.4240 C.3   108  THR108      0.1770
     43  OG1       33.1580   13.1900   52.7260 O.3   108  THR108     -0.2211
     44  CG2       32.6840   13.3640   50.3070 C.3   108  THR108      0.0375
     45  N         29.7380   20.8370   51.6330 N.3   147  GLU147     -0.1245
     46  CA        29.8440   20.7670   53.0790 C.3   147  GLU147      0.1567
     47  C         29.4610   22.1370   53.5500 C.2   147  GLU147      0.2260
     48  O         29.8140   23.0910   52.9210 O.2   147  GLU147     -0.2867
     49  CB        31.3230   20.4520   53.5260 C.3   147  GLU147      0.0388
     50  CG        31.6050   18.9480   53.4730 C.3   147  GLU147      0.1160
     51  CD        33.0920   18.5400   53.7190 C.2   147  GLU147      0.3649
     52  OE1       33.8380   19.3430   54.2400 O.co2 147  GLU147     -0.2457
     53  OE2       33.5130   17.4120   53.3640 O.co2 147  GLU147     -0.2457
     54  N         36.2890   21.9670   54.9170 N.3   151  ASN151     -0.1240
     55  CA        37.3340   21.6630   55.8470 C.3   151  ASN151      0.1653
     56  C         38.5390   21.1100   55.2270 C.2   151  ASN151      0.2266
     57  O         38.4610   20.0640   54.6060 O.2   151  ASN151     -0.2867
     58  CB        36.9280   20.5980   56.8030 C.3   151  ASN151      0.1155
     59  CG        38.1170   20.2160   57.6760 C.2   151  ASN151      0.2627
     60  OD1       38.6710   19.1190   57.5470 O.2   151  ASN151     -0.2716
     61  ND2       38.5980   21.2000   58.4570 N.am  151  ASN151     -0.0877
     62  N         26.6870   17.9920   53.5200 N.3   176  ASP176     -0.1239
     63  CA        27.3870   17.5450   54.7300 C.3   176  ASP176      0.1674
     64  C         27.4670   18.6390   55.8220 C.2   176  ASP176      0.2266
     65  O         28.2800   19.5910   55.7660 O.2   176  ASP176     -0.2867
     66  CB        28.7360   16.9030   54.3380 C.3   176  ASP176      0.1410
     67  CG        29.4590   16.1720   55.5330 C.2   176  ASP176      0.3668
     68  OD1       29.2370   16.5510   56.7020 O.co2 176  ASP176     -0.2456
     69  OD2       30.2790   15.2890   55.2350 O.co2 176  ASP176     -0.2456
     70  N         28.3180   18.3050   58.9500 N.3   178  THR178     -0.1203
     71  CA        29.1590   17.9320   60.0830 C.3   178  THR178      0.1994
     72  C         29.5920   19.2020   60.8780 C.2   178  THR178      0.2617
     73  O         29.3710   19.2660   62.0920 O.2   178  THR178     -0.2717
     74  CB        30.3620   17.0470   59.6730 C.3   178  THR178      0.1784
     75  OG1       29.8920   15.7950   59.1530 O.3   178  THR178     -0.2211
     76  CG2       31.2210   16.7600   60.9450 C.3   178  THR178      0.0376
     77  N         30.0890   20.2520   60.2040 N.am  179  PHE179     -0.1975
     78  CA        30.5160   21.5100   60.8500 C.3   179  PHE179      0.1639
     79  C         29.3190   22.3380   61.3560 C.2   179  PHE179      0.2290
     80  O         29.4600   23.2570   62.1690 O.2   179  PHE179     -0.2864
     81  CB        31.4280   22.3740   59.8980 C.3   179  PHE179      0.0560
     82  CG        32.9520   21.9240   59.8370 C.ar  179  PHE179     -0.0200
     83  CD1       33.3150   20.5680   59.5430 C.ar  179  PHE179     -0.0042
     84  CD2       33.9810   22.8590   59.9890 C.ar  179  PHE179     -0.0042
     85  CE1       34.6320   20.1410   59.4410 C.ar  179  PHE179     -0.0003
     86  CE2       35.3710   22.4320   59.8940 C.ar  179  PHE179     -0.0003
     87  CZ        35.7090   21.1100   59.6440 C.ar  179  PHE179     -0.0000
     88  N         25.7890   13.8660   58.1350 N.3   198  GLU198     -0.1231
     89  CA        26.7640   14.4310   59.0460 C.3   198  GLU198      0.1699
     90  C         27.3260   13.3230   59.8890 C.2   198  GLU198      0.2592
     91  O         26.6670   12.2980   60.0820 O.2   198  GLU198     -0.2718
     92  CB        26.1460   15.5470   59.9210 C.3   198  GLU198      0.0402
     93  CG        24.8500   15.1250   60.6950 C.3   198  GLU198      0.1161
     94  CD        24.1410   16.3080   61.2830 C.2   198  GLU198      0.3649
     95  OE1       22.9890   16.5340   60.8610 O.co2 198  GLU198     -0.2457
     96  OE2       24.7690   17.0770   62.0610 O.co2 198  GLU198     -0.2457
     97  N         28.5370   13.5790   60.3940 N.am  199  SER199     -0.1952
     98  CA        29.1970   12.7260   61.4180 C.3   199  SER199      0.1924
     99  C         28.7460   13.2350   62.7960 C.2   199  SER199      0.2314
    100  O         29.0170   14.3470   63.1750 O.2   199  SER199     -0.2863
    101  CB        30.7050   12.8830   61.3330 C.3   199  SER199      0.2116
    102  OG        31.1920   12.2120   62.4140 O.3   199  SER199     -0.2180
    103  N         29.9720   11.8580   65.2560 N.3   201  THR201     -0.1203
    104  CA        31.1530   11.5860   66.0150 C.3   201  THR201      0.1994
    105  C         31.7940   12.8060   66.5580 C.2   201  THR201      0.2617
    106  O         32.5110   12.7280   67.5910 O.2   201  THR201     -0.2717
    107  CB        32.1450   10.8370   65.2010 C.3   201  THR201      0.1784
    108  OG1       31.4650    9.7250   64.5370 O.3   201  THR201     -0.2211
    109  CG2       33.3010   10.2230   66.0920 C.3   201  THR201      0.0376
    110  N         31.5580   13.9260   65.8570 N.am  202  LYS202     -0.1979
    111  CA        32.2760   15.1660   66.0470 C.3   202  LYS202      0.1596
    112  C         31.5970   16.0030   67.1180 C.2   202  LYS202      0.2287
    113  O         31.5910   15.5760   68.2970 O.2   202  LYS202     -0.2864
    114  CB        32.4540   15.8720   64.6780 C.3   202  LYS202      0.0298
    115  CG        33.0790   14.9680   63.6240 C.3   202  LYS202      0.0038
    116  CD        34.4520   14.3640   63.9860 C.3   202  LYS202      0.0206
    117  CE        35.0190   13.4150   62.8180 C.3   202  LYS202      0.1093
    118  NZ        34.9920   14.0140   61.3350 N.3   202  LYS202     -0.1314
    119  N         31.3640    6.4220   67.3570 N.3   211  LEU211     -0.1245
    120  CA        31.0790    6.8750   65.9710 C.3   211  LEU211      0.1561
    121  C         29.5900    6.8470   65.7930 C.2   211  LEU211      0.2260
    122  O         28.9240    6.0190   66.4260 O.2   211  LEU211     -0.2867
    123  CB        31.6720    5.8620   64.9410 C.3   211  LEU211      0.0270
    124  CG        33.1800    5.5700   64.9800 C.3   211  LEU211      0.0019
    125  CD1       33.5600    4.6360   63.8310 C.3   211  LEU211      0.0001
    126  CD2       33.9100    6.8230   64.8160 C.3   211  LEU211      0.0001
    127  N         37.4610   16.1030   65.4400 N.3   349  LEU349     -0.1245
    128  CA        36.9130   17.4450   65.5500 C.3   349  LEU349      0.1561
    129  C         35.8070   17.4420   66.5750 C.2   349  LEU349      0.2260
    130  O         35.1100   16.4310   66.7460 O.2   349  LEU349     -0.2867
    131  CB        36.2440   17.9280   64.1850 C.3   349  LEU349      0.0270
    132  CG        37.1690   17.9630   62.9520 C.3   349  LEU349      0.0019
    133  CD1       36.3140   17.9840   61.6530 C.3   349  LEU349      0.0001
    134  CD2       38.0020   19.2740   63.0660 C.3   349  LEU349      0.0001
@<TRIPOS>BOND
     1    41    40    2
     2    40    39    1
     3    44    42    1
     4    23    22    2
     5    39    42    1
     6    39    38    1
     7    42    43    1
     8    45    46    1
     9    26    24    1
    10    30    29    2
    11    22    21    1
    12    27    28    1
    13    48    47    2
    14    29    28    1
    15    46    49    1
    16    46    47    1
    17    24    21    1
    18    24    25    1
    19    21    20    1
    20    53    51   ar
    21    50    49    1
    22    50    51    1
    23    62    63    1
    24    51    52   ar
    25    28    31    1
    26    18    17    2
    27    66    63    1
    28    66    67    1
    29    57    56    2
    30    31    32    1
    31    14    13    2
    32    63    64    1
    33    54    55    1
    34    17    19   am
    35    17    16    1
    36    56    55    1
    37    69    67   ar
    38    67    68   ar
    39    34    32   ar
    40    34    36   ar
    41    32    33   ar
    42    65    64    2
    43    55    58    1
    44    13    12    1
    45    12    15    1
    46    12    11    1
    47    15    16    1
    48    36    37   ar
    49    58    59    1
    50    33    35   ar
    51    10     9    2
    52    60    59    2
    53    11     9   am
    54    59    61   am
    55    37    35   ar
    56     9     8    1
    57    88    89    1
    58    70    71    1
    59    89    90    1
    60    89    92    1
    61    75    74    1
    62     8     7    1
    63     6     5    1
    64    85    83   ar
    65    85    87   ar
    66     4     3    2
    67    83    82   ar
    68    87    86   ar
    69    74    71    1
    70    74    76    1
    71    82    81    1
    72    82    84   ar
    73    90    91    2
    74    90    97   am
    75    86    84   ar
    76    81    78    1
    77    92    93    1
    78    71    72    1
    79    77    78    1
    80    77    72   am
    81     3     7   am
    82     3     2    1
    83    97    98    1
    84    93    94    1
    85     5     2    1
    86    78    79    1
    87    95    94   ar
    88    72    73    2
    89     2     1    1
    90    94    96   ar
    91   101    98    1
    92   101   102    1
    93   118   117    1
    94    79    80    2
    95    98    99    1
    96   133   132    1
    97    99   100    2
    98   117   116    1
    99   132   134    1
   100   132   131    1
   101   115   116    1
   102   115   114    1
   103   125   124    1
   104   131   128    1
   105   108   107    1
   106   114   111    1
   107   126   124    1
   108   123   124    1
   109   123   120    1
   110   107   104    1
   111   107   109    1
   112   103   104    1
   113   127   128    1
   114   128   129    1
   115   121   120    1
   116   121   122    2
   117   110   111    1
   118   110   105   am
   119   120   119    1
   120   104   105    1
   121   111   112    1
   122   105   106    2
   123   129   130    2
   124   112   113    2
