@<TRIPOS>MOLECULE
tmp/2cb8A02.pdb
 167 159 0 0 0
SMALL
GASTEIGER

@<TRIPOS>ATOM
      1  N         25.4740   12.7790   31.8910 N.3    12  VAL12      -0.1231
      2  CA        24.3530   13.6840   31.8650 C.3    12  VAL12       0.1692
      3  C         24.3790   14.6040   30.6250 C.2    12  VAL12       0.2591
      4  O         23.3350   15.1210   30.2230 O.2    12  VAL12      -0.2718
      5  CB        24.2580   14.4860   33.1940 C.3    12  VAL12       0.0266
      6  CG1       25.3020   15.5900   33.2960 C.3    12  VAL12       0.0020
      7  CG2       22.8560   15.0450   33.3780 C.3    12  VAL12       0.0020
      8  N         25.5570   14.7800   30.0120 N.am   13  ARG13      -0.1980
      9  CA        25.6980   15.6130   28.8180 C.3    13  ARG13       0.1597
     10  C         25.2370   14.9170   27.5350 C.2    13  ARG13       0.2287
     11  O         25.1460   15.5580   26.4710 O.2    13  ARG13      -0.2864
     12  CB        27.1530   16.0350   28.6520 C.3    13  ARG13       0.0334
     13  CG        27.7120   16.7730   29.8370 C.3    13  ARG13       0.0492
     14  CD        27.4840   18.2720   29.7760 C.3    13  ARG13       0.2205
     15  NE        28.3070   18.9340   30.7770 N.pl3  13  ARG13      -0.0865
     16  CZ        28.5020   20.2450   30.8660 C.cat  13  ARG13       0.5346
     17  NH1       27.8780   21.0940   30.0560 N.pl3  13  ARG13       0.1354
     18  NH2       29.3010   20.7000   31.8210 N.pl3  13  ARG13       0.1354
     19  N         17.2960   16.8720   26.2990 N.3    18  LYS18      -0.1231
     20  CA        17.7880   17.7970   27.3130 C.3    18  LYS18       0.1678
     21  C         16.8820   17.6930   28.5430 C.2    18  LYS18       0.2434
     22  O         15.6590   17.7020   28.4070 O.2    18  LYS18      -0.2733
     23  CB        17.8130   19.2310   26.7750 C.3    18  LYS18       0.0284
     24  CG        18.4520   20.2520   27.7250 C.3    18  LYS18       0.0035
     25  CD        18.2260   21.6670   27.2300 C.3    18  LYS18       0.0206
     26  CE        18.4960   22.6840   28.3250 C.3    18  LYS18       0.1093
     27  NZ        18.3490   24.0780   27.8390 N.3    18  LYS18      -0.1314
     28  N         17.4680   17.5870   29.7310 N.am   19  PRO19      -0.2729
     29  CA        16.6600   17.5740   30.9600 C.3    19  PRO19       0.1401
     30  C         15.8040   18.8250   31.1210 C.2    19  PRO19       0.2269
     31  O         16.1100   19.8870   30.5540 O.2    19  PRO19      -0.2865
     32  CB        17.7090   17.5050   32.0750 C.3    19  PRO19       0.0296
     33  CG        18.8950   16.9110   31.4460 C.3    19  PRO19       0.0237
     34  CD        18.9060   17.4080   30.0170 C.3    19  PRO19       0.0939
     35  N         14.0190   22.0470   33.1430 N.3    21  ASP21      -0.1239
     36  CA        14.6810   23.0680   33.9480 C.3    21  ASP21       0.1674
     37  C         14.8540   22.6170   35.3880 C.2    21  ASP21       0.2266
     38  O         15.8830   22.8760   35.9960 O.2    21  ASP21      -0.2867
     39  CB        13.9140   24.3700   33.9370 C.3    21  ASP21       0.1410
     40  CG        13.9870   25.0880   32.6060 C.2    21  ASP21       0.3668
     41  OD1       14.5780   24.5710   31.6320 O.co2  21  ASP21      -0.2456
     42  OD2       13.4300   26.1920   32.4560 O.co2  21  ASP21      -0.2456
     43  N         17.7770   20.2790   35.4430 N.3    24  MET24      -0.1230
     44  CA        19.0210   21.0290   35.2500 C.3    24  MET24       0.1702
     45  C         19.4480   21.7510   36.5220 C.2    24  MET24       0.2592
     46  O         20.6430   21.7550   36.8810 O.2    24  MET24      -0.2718
     47  CB        18.9050   21.9880   34.0650 C.3    24  MET24       0.0401
     48  CG        19.0770   21.2710   32.7340 C.3    24  MET24       0.0596
     49  SD        19.2510   22.3800   31.3400 S.3    24  MET24      -0.1393
     50  CE        21.0290   22.6440   31.3280 C.3    24  MET24       0.0692
     51  N         18.4810   22.3370   37.2240 N.am   25  LEU25      -0.1980
     52  CA        18.7800   23.0610   38.4560 C.3    25  LEU25       0.1596
     53  C         19.1940   22.1110   39.5730 C.2    25  LEU25       0.2287
     54  O         20.0780   22.4280   40.3660 O.2    25  LEU25      -0.2864
     55  CB        17.5990   23.9270   38.8860 C.3    25  LEU25       0.0297
     56  CG        17.3990   25.1750   38.0210 C.3    25  LEU25       0.0022
     57  CD1       16.0400   25.7400   38.3430 C.3    25  LEU25       0.0001
     58  CD2       18.4920   26.2110   38.2740 C.3    25  LEU25       0.0001
     59  N         20.7180   19.2370   39.1060 N.3    27  ILE27      -0.1231
     60  CA        22.0650   18.8260   38.6930 C.3    27  ILE27       0.1692
     61  C         23.0860   19.9220   39.0060 C.2    27  ILE27       0.2592
     62  O         24.1310   19.6630   39.5950 O.2    27  ILE27      -0.2718
     63  CB        22.0190   18.4190   37.1930 C.3    27  ILE27       0.0266
     64  CG1       21.3130   17.0580   37.0280 C.3    27  ILE27       0.0019
     65  CG2       23.3880   18.4570   36.5120 C.3    27  ILE27       0.0020
     66  CD1       22.0740   15.8470   37.6200 C.3    27  ILE27       0.0001
     67  N         22.7680   21.1670   38.6510 N.am   28  TYR28      -0.1976
     68  CA        23.6770   22.2620   38.9590 C.3    28  TYR28       0.1639
     69  C         23.9060   22.4220   40.4640 C.2    28  TYR28       0.2290
     70  O         25.0490   22.4790   40.9300 O.2    28  TYR28      -0.2864
     71  CB        23.1520   23.5860   38.3920 C.3    28  TYR28       0.0560
     72  CG        24.0350   24.7450   38.8250 C.ar   28  TYR28      -0.0198
     73  CD1       25.2760   24.9740   38.2360 C.ar   28  TYR28      -0.0009
     74  CD2       23.6600   25.5460   39.8990 C.ar   28  TYR28      -0.0009
     75  CE1       26.0940   26.0040   38.6630 C.ar   28  TYR28       0.0417
     76  CE2       24.4700   26.5770   40.3440 C.ar   28  TYR28       0.0417
     77  CZ        25.6870   26.8020   39.7190 C.ar   28  TYR28       0.1957
     78  OH        26.4800   27.8220   40.1530 O.3    28  TYR28      -0.2866
     79  N         24.2940   36.4230   45.8870 N.3    43  ARG43      -0.1245
     80  CA        23.2740   36.1760   44.8790 C.3    43  ARG43       0.1563
     81  C         23.3450   37.2350   43.7730 C.2    43  ARG43       0.2260
     82  O         23.4720   38.4370   44.0730 O.2    43  ARG43      -0.2867
     83  CB        21.8850   36.1890   45.5250 C.3    43  ARG43       0.0307
     84  CG        20.7460   35.7620   44.5970 C.3    43  ARG43       0.0489
     85  CD        19.4240   35.7410   45.3210 C.3    43  ARG43       0.2205
     86  NE        18.3510   35.0070   44.6450 N.pl3  43  ARG43      -0.0865
     87  CZ        17.2920   35.5600   44.0550 C.cat  43  ARG43       0.5346
     88  NH1       17.1650   36.8860   43.9590 N.pl3  43  ARG43       0.1354
     89  NH2       16.3550   34.7700   43.5430 N.pl3  43  ARG43       0.1354
     90  N         18.4890   40.8250   40.4730 N.3    46  MET46      -0.1245
     91  CA        17.1730   40.3690   40.0550 C.3    46  MET46       0.1570
     92  C         17.0190   40.1380   38.5510 C.2    46  MET46       0.2261
     93  O         16.1800   39.3380   38.1380 O.2    46  MET46      -0.2867
     94  CB        16.0940   41.3300   40.5760 C.3    46  MET46       0.0387
     95  CG        16.0530   42.7050   39.9100 C.3    46  MET46       0.0595
     96  SD        14.4610   43.5340   40.2000 S.3    46  MET46      -0.1393
     97  CE        13.3430   42.4700   39.2550 C.3    46  MET46       0.0692
     98  N         18.6330   36.3310   35.3450 N.3    49  PHE49      -0.1227
     99  CA        17.5850   35.3460   35.5510 C.3    49  PHE49       0.1736
    100  C         18.1400   33.9460   35.7390 C.2    49  PHE49       0.2596
    101  O         17.7990   33.2460   36.7080 O.2    49  PHE49      -0.2718
    102  CB        16.5800   35.4060   34.4080 C.3    49  PHE49       0.0547
    103  CG        16.0450   36.7940   34.1450 C.ar   49  PHE49      -0.0202
    104  CD1       15.4480   37.5220   35.1720 C.ar   49  PHE49      -0.0042
    105  CD2       16.1710   37.3690   32.8900 C.ar   49  PHE49      -0.0042
    106  CE1       14.9530   38.7980   34.9300 C.ar   49  PHE49      -0.0003
    107  CE2       15.6740   38.6460   32.6400 C.ar   49  PHE49      -0.0003
    108  CZ        15.0780   39.3600   33.6520 C.ar   49  PHE49      -0.0000
    109  N         19.0060   33.5370   34.8310 N.am   50  THR50      -0.1953
    110  CA        19.6350   32.2290   34.9560 C.3    50  THR50       0.1897
    111  C         20.5330   32.2100   36.1720 C.2    50  THR50       0.2313
    112  O         20.5690   31.2070   36.8940 O.2    50  THR50      -0.2863
    113  CB        20.4140   31.9270   33.6610 C.3    50  THR50       0.1794
    114  OG1       19.4740   31.8060   32.5820 O.3    50  THR50      -0.2208
    115  CG2       21.1280   30.5750   33.7320 C.3    50  THR50       0.0378
    116  N         20.4130   33.9150   39.0470 N.3    52  LYS52      -0.1231
    117  CA        19.7610   33.8550   40.3580 C.3    52  LYS52       0.1693
    118  C         19.0640   32.5110   40.5810 C.2    52  LYS52       0.2592
    119  O         19.0580   32.0190   41.6910 O.2    52  LYS52      -0.2718
    120  CB        18.8020   35.0370   40.5730 C.3    52  LYS52       0.0285
    121  CG        17.4540   34.9380   39.8750 C.3    52  LYS52       0.0035
    122  CD        16.6530   36.2180   40.1090 C.3    52  LYS52       0.0206
    123  CE        15.2910   36.1680   39.4340 C.3    52  LYS52       0.1093
    124  NZ        14.3500   35.3250   40.2180 N.3    52  LYS52      -0.1314
    125  N         18.5550   31.8870   39.5140 N.am   53  ALA53      -0.1966
    126  CA        17.9450   30.5620   39.6080 C.3    53  ALA53       0.1728
    127  C         18.9960   29.5250   39.9910 C.2    53  ALA53       0.2616
    128  O         18.7660   28.6910   40.8700 O.2    53  ALA53      -0.2715
    129  CB        17.2840   30.1940   38.3070 C.3    53  ALA53       0.0334
    130  N         20.1550   29.5830   39.3410 N.am   54  LYS54      -0.1977
    131  CA        21.2830   28.7080   39.6840 C.3    54  LYS54       0.1596
    132  C         21.7010   28.9010   41.1350 C.2    54  LYS54       0.2287
    133  O         21.8870   27.9420   41.8750 O.2    54  LYS54      -0.2864
    134  CB        22.4930   28.9990   38.7860 C.3    54  LYS54       0.0298
    135  CG        22.3840   28.3820   37.4100 C.3    54  LYS54       0.0038
    136  CD        23.3530   29.0020   36.4090 C.3    54  LYS54       0.0206
    137  CE        24.7600   29.0630   36.9800 C.3    54  LYS54       0.1093
    138  NZ        25.7290   29.6660   36.0060 N.3    54  LYS54      -0.1314
    139  N         20.0350   30.1130   43.6530 N.3    56  ASP56      -0.1239
    140  CA        19.0140   29.6180   44.5770 C.3    56  ASP56       0.1674
    141  C         19.0830   28.1060   44.7100 C.2    56  ASP56       0.2266
    142  O         18.9210   27.5720   45.8170 O.2    56  ASP56      -0.2867
    143  CB        17.6180   29.9830   44.0830 C.3    56  ASP56       0.1410
    144  CG        17.3000   31.4550   44.2390 C.2    56  ASP56       0.3668
    145  OD1       18.0490   32.1960   44.9100 O.co2  56  ASP56      -0.2456
    146  OD2       16.2860   31.9430   43.7070 O.co2  56  ASP56      -0.2456
    147  N         19.9180   26.5100   48.4570 N.3    60  GLU60      -0.1245
    148  CA        18.9600   25.6460   49.1540 C.3    60  GLU60       0.1567
    149  C         19.6230   24.4520   49.8280 C.2    60  GLU60       0.2260
    150  O         19.0560   23.8510   50.7250 O.2    60  GLU60      -0.2867
    151  CB        17.9270   25.1180   48.1560 C.3    60  GLU60       0.0388
    152  CG        16.8360   26.0880   47.7820 C.3    60  GLU60       0.1160
    153  CD        15.9890   25.5710   46.6370 C.2    60  GLU60       0.3649
    154  OE1       15.9620   24.3400   46.4190 O.co2  60  GLU60      -0.2457
    155  OE2       15.3670   26.3980   45.9490 O.co2  60  GLU60      -0.2457
    156  N         23.5200   13.5380   43.1660 N.3    73  TYR73      -0.1241
    157  CA        23.8440   13.8900   41.7740 C.3    73  TYR73       0.1605
    158  C         23.9040   12.6110   40.9560 C.2    73  TYR73       0.2264
    159  O         23.2800   12.5110   39.8960 O.2    73  TYR73      -0.2867
    160  CB        25.1860   14.5870   41.7690 C.3    73  TYR73       0.0534
    161  CG        25.5540   15.1170   40.3970 C.ar   73  TYR73      -0.0201
    162  CD1       26.1020   14.2870   39.4370 C.ar   73  TYR73      -0.0009
    163  CD2       25.3370   16.4450   40.0810 C.ar   73  TYR73      -0.0009
    164  CE1       26.4320   14.7730   38.1650 C.ar   73  TYR73       0.0417
    165  CE2       25.6470   16.9420   38.8360 C.ar   73  TYR73       0.0417
    166  CZ        26.2070   16.1080   37.8670 C.ar   73  TYR73       0.1957
    167  OH        26.5240   16.5610   36.6350 O.3    73  TYR73      -0.2866
@<TRIPOS>BOND
     1    19    20    1
     2    11    10    2
     3    23    20    1
     4    23    24    1
     5    25    24    1
     6    25    26    1
     7    20    21    1
     8    10     9    1
     9    27    26    1
    10    22    21    2
    11    21    28   am
    12    12     9    1
    13    12    13    1
    14     9     8    1
    15    28    34    1
    16    28    29    1
    17    14    13    1
    18    14    15    1
    19     8     3   am
    20    34    33    1
    21    17    16    1
    22     4     3    2
    23    31    30    2
    24     3     2    1
    25    15    16    2
    26    16    18    1
    27    29    30    1
    28    29    32    1
    29    50    49    1
    30    49    48    1
    31    33    32    1
    32    41    40   ar
    33     2     1    1
    34     2     5    1
    35    42    40   ar
    36   114   113    1
    37    40    39    1
    38   107   105   ar
    39   107   108   ar
    40    48    47    1
    41   105   103   ar
    42    35    36    1
    43     5     6    1
    44     5     7    1
    45   108   106   ar
    46   113   115    1
    47   113   110    1
    48    39    36    1
    49    36    37    1
    50    47    44    1
    51   103   102    1
    52   103   104   ar
    53   102    99    1
    54   109   110    1
    55   109   100   am
    56   106   104   ar
    57   110   111    1
    58    44    43    1
    59    44    45    1
    60    98    99    1
    61    37    38    2
    62    99   100    1
    63   100   101    2
    64   138   137    1
    65   111   112    2
    66   136   137    1
    67   136   135    1
    68    65    63    1
    69    45    46    2
    70    45    51   am
    71   167   166    1
    72    64    63    1
    73    64    66    1
    74    63    60    1
    75    51    52    1
    76   135   134    1
    77   166   164   ar
    78   166   165   ar
    79    56    58    1
    80    56    57    1
    81    56    55    1
    82    93    92    2
    83   164   162   ar
    84    73    75   ar
    85    73    72   ar
    86   129   126    1
    87    71    72    1
    88    71    68    1
    89    52    55    1
    90    52    53    1
    91    92    91    1
    92    67    68    1
    93    67    61   am
    94    75    77   ar
    95    60    61    1
    96    60    59    1
    97   134   131    1
    98    72    74   ar
    99   165   163   ar
   100    68    69    1
   101    61    62    2
   102   116   117    1
   103    97    96    1
   104   130   131    1
   105   130   127   am
   106   123   122    1
   107   123   124    1
   108   162   161   ar
   109   125   126    1
   110   125   118   am
   111    53    54    2
   112   126   127    1
   113   131   132    1
   114    77    78    1
   115    77    76   ar
   116   121   122    1
   117   121   120    1
   118   159   158    2
   119    74    76   ar
   120    95    96    1
   121    95    94    1
   122   127   128    2
   123    91    90    1
   124    91    94    1
   125   163   161   ar
   126   117   120    1
   127   117   118    1
   128   161   160    1
   129    69    70    2
   130   118   119    2
   131   158   157    1
   132   132   133    2
   133   160   157    1
   134   157   156    1
   135    89    87    1
   136   139   140    1
   137   146   144   ar
   138    81    82    2
   139    81    80    1
   140    88    87    1
   141    87    86    2
   142   143   144    1
   143   143   140    1
   144   144   145   ar
   145   140   141    1
   146    84    85    1
   147    84    83    1
   148    86    85    1
   149   141   142    2
   150    80    83    1
   151    80    79    1
   152   155   153   ar
   153   154   153   ar
   154   153   152    1
   155   152   151    1
   156   151   148    1
   157   147   148    1
   158   148   149    1
   159   149   150    2
