@<TRIPOS>MOLECULE
tmp/2cb8A00.pdb
 99 97 0 0 0
SMALL
GASTEIGER

@<TRIPOS>ATOM
      1  N         28.7380   13.0410   35.6830 N.3     9  ALA9       -0.1245
      2  CA        28.8200   14.3880   35.1250 C.3     9  ALA9        0.1562
      3  C         29.0660   14.3530   33.6180 C.2     9  ALA9        0.2260
      4  O         28.6700   15.2800   32.9010 O.2     9  ALA9       -0.2867
      5  CB        29.8960   15.1830   35.8310 C.3     9  ALA9        0.0290
      6  N         25.4740   12.7790   31.8910 N.3    12  VAL12      -0.1231
      7  CA        24.3530   13.6840   31.8650 C.3    12  VAL12       0.1692
      8  C         24.3790   14.6040   30.6250 C.2    12  VAL12       0.2591
      9  O         23.3350   15.1210   30.2230 O.2    12  VAL12      -0.2718
     10  CB        24.2580   14.4860   33.1940 C.3    12  VAL12       0.0266
     11  CG1       25.3020   15.5900   33.2960 C.3    12  VAL12       0.0020
     12  CG2       22.8560   15.0450   33.3780 C.3    12  VAL12       0.0020
     13  N         25.5570   14.7800   30.0120 N.am   13  ARG13      -0.1980
     14  CA        25.6980   15.6130   28.8180 C.3    13  ARG13       0.1597
     15  C         25.2370   14.9170   27.5350 C.2    13  ARG13       0.2287
     16  O         25.1460   15.5580   26.4710 O.2    13  ARG13      -0.2864
     17  CB        27.1530   16.0350   28.6520 C.3    13  ARG13       0.0334
     18  CG        27.7120   16.7730   29.8370 C.3    13  ARG13       0.0492
     19  CD        27.4840   18.2720   29.7760 C.3    13  ARG13       0.2205
     20  NE        28.3070   18.9340   30.7770 N.pl3  13  ARG13      -0.0865
     21  CZ        28.5020   20.2450   30.8660 C.cat  13  ARG13       0.5346
     22  NH1       27.8780   21.0940   30.0560 N.pl3  13  ARG13       0.1354
     23  NH2       29.3010   20.7000   31.8210 N.pl3  13  ARG13       0.1354
     24  N         20.7180   19.2370   39.1060 N.3    27  ILE27      -0.1231
     25  CA        22.0650   18.8260   38.6930 C.3    27  ILE27       0.1692
     26  C         23.0860   19.9220   39.0060 C.2    27  ILE27       0.2592
     27  O         24.1310   19.6630   39.5950 O.2    27  ILE27      -0.2718
     28  CB        22.0190   18.4190   37.1930 C.3    27  ILE27       0.0266
     29  CG1       21.3130   17.0580   37.0280 C.3    27  ILE27       0.0019
     30  CG2       23.3880   18.4570   36.5120 C.3    27  ILE27       0.0020
     31  CD1       22.0740   15.8470   37.6200 C.3    27  ILE27       0.0001
     32  N         22.7680   21.1670   38.6510 N.am   28  TYR28      -0.1976
     33  CA        23.6770   22.2620   38.9590 C.3    28  TYR28       0.1639
     34  C         23.9060   22.4220   40.4640 C.2    28  TYR28       0.2290
     35  O         25.0490   22.4790   40.9300 O.2    28  TYR28      -0.2864
     36  CB        23.1520   23.5860   38.3920 C.3    28  TYR28       0.0560
     37  CG        24.0350   24.7450   38.8250 C.ar   28  TYR28      -0.0198
     38  CD1       25.2760   24.9740   38.2360 C.ar   28  TYR28      -0.0009
     39  CD2       23.6600   25.5460   39.8990 C.ar   28  TYR28      -0.0009
     40  CE1       26.0940   26.0040   38.6630 C.ar   28  TYR28       0.0417
     41  CE2       24.4700   26.5770   40.3440 C.ar   28  TYR28       0.0417
     42  CZ        25.6870   26.8020   39.7190 C.ar   28  TYR28       0.1957
     43  OH        26.4800   27.8220   40.1530 O.3    28  TYR28      -0.2866
     44  N         25.8990   19.5900   42.0130 N.3    31  TYR31      -0.1227
     45  CA        27.2780   19.6710   41.5300 C.3    31  TYR31       0.1736
     46  C         28.0770   20.6950   42.3410 C.2    31  TYR31       0.2595
     47  O         29.1880   20.3820   42.8170 O.2    31  TYR31      -0.2718
     48  CB        27.2950   19.9840   40.0670 C.3    31  TYR31       0.0548
     49  CG        28.6880   20.1800   39.5160 C.ar   31  TYR31      -0.0200
     50  CD1       29.4350   19.0810   39.0950 C.ar   31  TYR31      -0.0009
     51  CD2       29.2540   21.4560   39.4280 C.ar   31  TYR31      -0.0009
     52  CE1       30.6910   19.2660   38.5900 C.ar   31  TYR31       0.0417
     53  CE2       30.5290   21.6370   38.9160 C.ar   31  TYR31       0.0417
     54  CZ        31.2330   20.5410   38.5130 C.ar   31  TYR31       0.1957
     55  OH        32.4800   20.7180   38.0010 O.3    31  TYR31      -0.2866
     56  N         27.5100   21.8820   42.5430 N.am   32  LYS32      -0.1980
     57  CA        28.2330   22.9050   43.3050 C.3    32  LYS32       0.1596
     58  C         28.4180   22.5000   44.7510 C.2    32  LYS32       0.2287
     59  O         29.5030   22.6580   45.3130 O.2    32  LYS32      -0.2864
     60  CB        27.5400   24.2660   43.2260 C.3    32  LYS32       0.0298
     61  CG        27.3950   24.8340   41.8130 C.3    32  LYS32       0.0038
     62  CD        28.7580   25.0750   41.1290 C.3    32  LYS32       0.0206
     63  CE        29.5720   26.1610   41.8250 C.3    32  LYS32       0.1093
     64  NZ        30.9240   26.3700   41.1540 N.3    32  LYS32      -0.1314
     65  N         20.1550   29.5830   39.3410 N.3    54  LYS54      -0.1245
     66  CA        21.2830   28.7080   39.6840 C.3    54  LYS54       0.1561
     67  C         21.7010   28.9010   41.1350 C.2    54  LYS54       0.2260
     68  O         21.8870   27.9420   41.8750 O.2    54  LYS54      -0.2867
     69  CB        22.4930   28.9990   38.7860 C.3    54  LYS54       0.0271
     70  CG        22.3840   28.3820   37.4100 C.3    54  LYS54       0.0035
     71  CD        23.3530   29.0020   36.4090 C.3    54  LYS54       0.0206
     72  CE        24.7600   29.0630   36.9800 C.3    54  LYS54       0.1093
     73  NZ        25.7290   29.6660   36.0060 N.3    54  LYS54      -0.1314
     74  N         21.6250   26.1310   44.4570 N.3    58  TRP58      -0.1241
     75  CA        22.7810   25.7930   45.2920 C.3    58  TRP58       0.1605
     76  C         22.5640   26.2440   46.7460 C.2    58  TRP58       0.2264
     77  O         22.8210   25.4910   47.6940 O.2    58  TRP58      -0.2867
     78  CB        24.0390   26.4320   44.6700 C.3    58  TRP58       0.0550
     79  CG        25.3200   26.1740   45.3640 C.ar   58  TRP58       0.0003
     80  CD1       25.5910   25.2310   46.3320 C.ar   58  TRP58       0.0946
     81  CD2       26.5360   26.8880   45.1510 C.ar   58  TRP58       0.0152
     82  NE1       26.9120   25.3150   46.7070 N.ar   58  TRP58      -0.2442
     83  CE2       27.5190   26.3220   45.9970 C.ar   58  TRP58       0.0810
     84  CE3       26.9150   27.9400   44.2840 C.ar   58  TRP58       0.0012
     85  CZ2       28.8350   26.7810   46.0230 C.ar   58  TRP58       0.0191
     86  CZ3       28.2230   28.4100   44.3250 C.ar   58  TRP58       0.0001
     87  CH2       29.1630   27.8280   45.1930 C.ar   58  TRP58       0.0015
     88  N         23.5200   13.5380   43.1660 N.3    73  TYR73      -0.1241
     89  CA        23.8440   13.8900   41.7740 C.3    73  TYR73       0.1605
     90  C         23.9040   12.6110   40.9560 C.2    73  TYR73       0.2264
     91  O         23.2800   12.5110   39.8960 O.2    73  TYR73      -0.2867
     92  CB        25.1860   14.5870   41.7690 C.3    73  TYR73       0.0534
     93  CG        25.5540   15.1170   40.3970 C.ar   73  TYR73      -0.0201
     94  CD1       26.1020   14.2870   39.4370 C.ar   73  TYR73      -0.0009
     95  CD2       25.3370   16.4450   40.0810 C.ar   73  TYR73      -0.0009
     96  CE1       26.4320   14.7730   38.1650 C.ar   73  TYR73       0.0417
     97  CE2       25.6470   16.9420   38.8360 C.ar   73  TYR73       0.0417
     98  CZ        26.2070   16.1080   37.8670 C.ar   73  TYR73       0.1957
     99  OH        26.5240   16.5610   36.6350 O.3    73  TYR73      -0.2866
@<TRIPOS>BOND
     1    16    15    2
     2    15    14    1
     3    17    14    1
     4    17    18    1
     5    14    13    1
     6    19    18    1
     7    19    20    1
     8    13     8   am
     9    22    21    1
    10     9     8    2
    11     8     7    1
    12    20    21    2
    13    21    23    1
    14     7     6    1
    15     7    10    1
    16     4     3    2
    17    10    11    1
    18    10    12    1
    19     3     2    1
    20     2     1    1
    21     2     5    1
    22    73    72    1
    23    71    72    1
    24    71    70    1
    25    30    28    1
    26    99    98    1
    27    29    28    1
    28    29    31    1
    29    28    25    1
    30    70    69    1
    31    98    96   ar
    32    98    97   ar
    33    55    54    1
    34    96    94   ar
    35    38    40   ar
    36    38    37   ar
    37    36    37    1
    38    36    33    1
    39    54    52   ar
    40    54    53   ar
    41    52    50   ar
    42    32    33    1
    43    32    26   am
    44    40    42   ar
    45    25    26    1
    46    25    24    1
    47    69    66    1
    48    37    39   ar
    49    97    95   ar
    50    53    51   ar
    51    33    34    1
    52    26    27    2
    53    50    49   ar
    54    65    66    1
    55    51    49   ar
    56    94    93   ar
    57    49    48    1
    58    66    67    1
    59    42    43    1
    60    42    41   ar
    61    91    90    2
    62    39    41   ar
    63    48    45    1
    64    95    93   ar
    65    93    92    1
    66    34    35    2
    67    90    89    1
    68    62    61    1
    69    62    63    1
    70    67    68    2
    71    64    63    1
    72    45    44    1
    73    45    46    1
    74    92    89    1
    75    89    88    1
    76    61    60    1
    77    46    56   am
    78    46    47    2
    79    56    57    1
    80    60    57    1
    81    57    58    1
    82    84    86   ar
    83    84    81   ar
    84    86    87   ar
    85    74    75    1
    86    78    75    1
    87    78    79    1
    88    58    59    2
    89    81    79   ar
    90    81    83   ar
    91    87    85   ar
    92    75    76    1
    93    79    80   ar
    94    83    85   ar
    95    83    82   ar
    96    80    82   ar
    97    76    77    2
