@<TRIPOS>MOLECULE
tmp/2cb8B01.pdb
 135 130 0 0 0
SMALL
GASTEIGER

@<TRIPOS>ATOM
      1  N          6.0960   21.4460   46.3330 N.3    11  VAL11      -0.1231
      2  CA         5.1540   22.5620   46.2670 C.3    11  VAL11       0.1692
      3  C          4.8950   23.0060   44.8100 C.2    11  VAL11       0.2591
      4  O          3.8410   23.5290   44.4940 O.2    11  VAL11      -0.2718
      5  CB         5.5880   23.7410   47.1950 C.3    11  VAL11       0.0266
      6  CG1        6.7270   24.5350   46.5920 C.3    11  VAL11       0.0020
      7  CG2        4.4060   24.6540   47.5060 C.3    11  VAL11       0.0020
      8  N          5.8550   22.7400   43.9250 N.am   12  ARG12      -0.1980
      9  CA         5.7440   23.1210   42.5230 C.3    12  ARG12       0.1597
     10  C          4.7140   22.2890   41.7730 C.2    12  ARG12       0.2287
     11  O          4.2570   22.6770   40.6870 O.2    12  ARG12      -0.2864
     12  CB         7.1090   23.0090   41.8420 C.3    12  ARG12       0.0334
     13  CG         8.0190   24.1740   42.1540 C.3    12  ARG12       0.0492
     14  CD         9.2870   24.2180   41.3270 C.3    12  ARG12       0.2205
     15  NE        10.1500   25.3170   41.7580 N.pl3  12  ARG12      -0.0865
     16  CZ        10.2790   26.4690   41.1140 C.cat  12  ARG12       0.5346
     17  NH1        9.6060   26.6870   39.9910 N.pl3  12  ARG12       0.1354
     18  NH2       11.0850   27.4090   41.5950 N.pl3  12  ARG12       0.1354
     19  N          1.6480   21.1520   43.0120 N.3    14  LEU14      -0.1231
     20  CA         0.2570   21.2370   43.4700 C.3    14  LEU14       0.1693
     21  C         -0.6950   21.2980   42.2720 C.2    14  LEU14       0.2592
     22  O         -0.3950   21.9460   41.2700 O.2    14  LEU14      -0.2718
     23  CB         0.0600   22.4470   44.3730 C.3    14  LEU14       0.0284
     24  CG         0.8600   22.4460   45.6770 C.3    14  LEU14       0.0019
     25  CD1        0.7500   23.7970   46.3500 C.3    14  LEU14       0.0001
     26  CD2        0.4010   21.3350   46.6200 C.3    14  LEU14       0.0001
     27  N         -1.8320   20.6180   42.3850 N.am   15  LYS15      -0.1966
     28  CA        -2.7770   20.4860   41.2740 C.3    15  LYS15       0.1728
     29  C         -3.5280   21.7730   40.9810 C.2    15  LYS15       0.2617
     30  O         -4.0670   21.9550   39.8860 O.2    15  LYS15      -0.2715
     31  CB        -3.7880   19.3780   41.5570 C.3    15  LYS15       0.0311
     32  CG        -3.2180   17.9830   41.4390 C.3    15  LYS15       0.0038
     33  CD        -4.3300   16.9490   41.4470 C.3    15  LYS15       0.0206
     34  CE        -3.7780   15.5440   41.3300 C.3    15  LYS15       0.1093
     35  NZ        -4.8020   14.5330   41.7150 N.3    15  LYS15      -0.1314
     36  N         -3.5830   22.6480   41.9770 N.am   16  THR16      -0.1937
     37  CA        -4.2730   23.9260   41.8810 C.3    16  THR16       0.2028
     38  C         -3.3260   24.9910   42.4070 C.2    16  THR16       0.2642
     39  O         -2.6300   24.7590   43.3930 O.2    16  THR16      -0.2714
     40  CB        -5.5560   23.8760   42.7430 C.3    16  THR16       0.1808
     41  OG1       -6.4490   22.8900   42.2120 O.3    16  THR16      -0.2208
     42  CG2       -6.3470   25.1670   42.6460 C.3    16  THR16       0.0379
     43  N         -3.2710   26.1410   41.7400 N.am   17  LYS17      -0.1963
     44  CA        -2.4760   27.2660   42.2390 C.3    17  LYS17       0.1713
     45  C         -3.0510   27.7620   43.5700 C.2    17  LYS17       0.2458
     46  O         -4.2310   28.0920   43.6370 O.2    17  LYS17      -0.2730
     47  CB        -2.4520   28.3930   41.1980 C.3    17  LYS17       0.0311
     48  CG        -1.6430   29.6210   41.5800 C.3    17  LYS17       0.0038
     49  CD        -2.0050   30.7800   40.6390 C.3    17  LYS17       0.0206
     50  CE        -1.0050   31.9160   40.7210 C.3    17  LYS17       0.1093
     51  NZ        -1.2710   32.9420   39.6760 N.3    17  LYS17      -0.1314
     52  N         -2.2500   27.7750   44.6390 N.am   18  PRO18      -0.2727
     53  CA        -2.7100   28.3090   45.9360 C.3    18  PRO18       0.1402
     54  C         -3.0950   29.7900   45.9130 C.2    18  PRO18       0.2269
     55  O         -2.7820   30.5200   44.9560 O.2    18  PRO18      -0.2865
     56  CB        -1.5000   28.0900   46.8580 C.3    18  PRO18       0.0296
     57  CG        -0.7620   26.9620   46.2240 C.3    18  PRO18       0.0237
     58  CD        -0.8900   27.2150   44.7400 C.3    18  PRO18       0.0939
     59  N         -3.1980   33.8360   46.9070 N.3    20  ASP20      -0.1239
     60  CA        -2.0940   34.7930   47.0470 C.3    20  ASP20       0.1674
     61  C         -1.4930   34.7740   48.4400 C.2    20  ASP20       0.2266
     62  O         -0.2740   34.8250   48.5840 O.2    20  ASP20      -0.2867
     63  CB        -2.5900   36.1920   46.7300 C.3    20  ASP20       0.1410
     64  CG        -2.6640   36.4590   45.2520 C.2    20  ASP20       0.3668
     65  OD1       -2.3370   35.5640   44.4280 O.co2  20  ASP20      -0.2456
     66  OD2       -3.0390   37.5650   44.8310 O.co2  20  ASP20      -0.2456
     67  N          0.7000   31.6860   48.7000 N.3    23  MET23      -0.1230
     68  CA         1.8990   31.8500   47.8980 C.3    23  MET23       0.1702
     69  C          2.8900   32.8140   48.5410 C.2    23  MET23       0.2592
     70  O          4.0920   32.5810   48.4870 O.2    23  MET23      -0.2718
     71  CB         1.5390   32.3420   46.5080 C.3    23  MET23       0.0401
     72  CG         0.7390   31.3370   45.6970 C.3    23  MET23       0.0596
     73  SD         1.7010   29.9140   45.2090 S.3    23  MET23      -0.1393
     74  CE         1.8750   28.9680   46.6300 C.3    23  MET23       0.0692
     75  N          2.3810   33.8770   49.1580 N.am   24  LEU24      -0.1980
     76  CA         3.2370   34.8300   49.8780 C.3    24  LEU24       0.1596
     77  C          3.8100   34.2110   51.1340 C.2    24  LEU24       0.2287
     78  O          4.9560   34.4930   51.4900 O.2    24  LEU24      -0.2864
     79  CB         2.4790   36.1230   50.1970 C.3    24  LEU24       0.0297
     80  CG         2.1890   36.9710   48.9570 C.3    24  LEU24       0.0022
     81  CD1        1.1840   38.0420   49.3100 C.3    24  LEU24       0.0001
     82  CD2        3.4460   37.5980   48.3720 C.3    24  LEU24       0.0001
     83  N          4.5420   31.0090   51.3760 N.3    26  ILE26      -0.1231
     84  CA         5.5530   30.1170   50.8310 C.3    26  ILE26       0.1692
     85  C          6.8160   30.8930   50.4010 C.2    26  ILE26       0.2592
     86  O          7.9460   30.4940   50.7200 O.2    26  ILE26      -0.2718
     87  CB         4.9190   29.2910   49.6670 C.3    26  ILE26       0.0266
     88  CG1        3.9970   28.2010   50.2500 C.3    26  ILE26       0.0019
     89  CG2        5.9770   28.7230   48.7020 C.3    26  ILE26       0.0020
     90  CD1        4.7540   27.1200   51.0450 C.3    26  ILE26       0.0001
     91  N          6.6120   31.9980   49.6890 N.am   27  TYR27      -0.1976
     92  CA         7.7550   32.8180   49.2600 C.3    27  TYR27       0.1639
     93  C          8.5280   33.3960   50.4540 C.2    27  TYR27       0.2290
     94  O          9.7480   33.2380   50.5440 O.2    27  TYR27      -0.2864
     95  CB         7.2810   33.9510   48.3370 C.3    27  TYR27       0.0560
     96  CG         8.4080   34.8950   47.9930 C.ar   27  TYR27      -0.0198
     97  CD1        9.3470   34.5570   47.0070 C.ar   27  TYR27      -0.0009
     98  CD2        8.5590   36.1130   48.6680 C.ar   27  TYR27      -0.0009
     99  CE1       10.3980   35.4260   46.6990 C.ar   27  TYR27       0.0417
    100  CE2        9.6080   36.9720   48.3780 C.ar   27  TYR27       0.0417
    101  CZ        10.5150   36.6240   47.4000 C.ar   27  TYR27       0.1957
    102  OH        11.5570   37.4820   47.1130 O.3    27  TYR27      -0.2866
    103  N          3.3470   43.2900   42.4430 N.3    49  THR49      -0.1218
    104  CA         3.7630   41.9240   42.7680 C.3    49  THR49       0.1862
    105  C          5.0840   41.8990   43.5420 C.2    49  THR49       0.2287
    106  O          5.2030   41.1960   44.5550 O.2    49  THR49      -0.2866
    107  CB         3.8670   41.0870   41.4890 C.3    49  THR49       0.1770
    108  OG1        2.5570   40.9140   40.9450 O.3    49  THR49      -0.2211
    109  CG2        4.2990   39.6430   41.8010 C.3    49  THR49       0.0375
    110  N          4.6100   43.1970   47.1480 N.3    52  ALA52      -0.1231
    111  CA         3.8880   42.2520   47.9970 C.3    52  ALA52       0.1694
    112  C          4.8160   41.1410   48.4880 C.2    52  ALA52       0.2591
    113  O          4.7720   40.7410   49.6580 O.2    52  ALA52      -0.2718
    114  CB         2.7140   41.6620   47.2530 C.3    52  ALA52       0.0304
    115  N          5.6540   40.6410   47.5810 N.am   53  LYS53      -0.1980
    116  CA         6.6500   39.6270   47.9270 C.3    53  LYS53       0.1596
    117  C          7.6570   40.1610   48.9310 C.2    53  LYS53       0.2287
    118  O          7.9670   39.4970   49.9300 O.2    53  LYS53      -0.2864
    119  CB         7.3670   39.1330   46.6720 C.3    53  LYS53       0.0298
    120  CG         6.5040   38.1860   45.8500 C.3    53  LYS53       0.0038
    121  CD         7.0570   38.0220   44.4470 C.3    53  LYS53       0.0206
    122  CE         8.4650   37.4290   44.4520 C.3    53  LYS53       0.1093
    123  NZ         8.9730   37.2890   43.0380 N.3    53  LYS53      -0.1314
    124  N          7.7020   26.5380   56.7190 N.3    72  TYR72      -0.1241
    125  CA         7.6050   26.2570   55.2590 C.3    72  TYR72       0.1605
    126  C          7.2040   24.8080   55.0070 C.2    72  TYR72       0.2264
    127  O          6.3100   24.5350   54.2250 O.2    72  TYR72      -0.2867
    128  CB         8.9650   26.5200   54.5900 C.3    72  TYR72       0.0534
    129  CG         8.9480   26.3730   53.0810 C.ar   72  TYR72      -0.0201
    130  CD1        9.1920   25.1390   52.4590 C.ar   72  TYR72      -0.0009
    131  CD2        8.6920   27.4700   52.2690 C.ar   72  TYR72      -0.0009
    132  CE1        9.1800   24.9880   51.0890 C.ar   72  TYR72       0.0417
    133  CE2        8.6820   27.3370   50.8440 C.ar   72  TYR72       0.0417
    134  CZ         8.9180   26.1010   50.2910 C.ar   72  TYR72       0.1957
    135  OH         8.9110   25.9600   48.9060 O.3    72  TYR72      -0.2866
@<TRIPOS>BOND
     1    51    50    1
     2    30    29    2
     3    17    16    1
     4    49    50    1
     5    49    48    1
     6    11    10    2
     7   108   107    1
     8    29    28    1
     9    29    36   am
    10    16    18    1
    11    16    15    2
    12    47    48    1
    13    47    44    1
    14    22    21    2
    15    28    31    1
    16    28    27    1
    17    14    15    1
    18    14    13    1
    19    34    33    1
    20    34    35    1
    21    32    33    1
    22    32    31    1
    23   107   109    1
    24   107   104    1
    25    43    44    1
    26    43    38   am
    27    10     9    1
    28    12    13    1
    29    12     9    1
    30    37    36    1
    31    37    38    1
    32    37    40    1
    33    41    40    1
    34    44    45    1
    35    21    27   am
    36    21    20    1
    37    38    39    2
    38   103   104    1
    39     9     8    1
    40    42    40    1
    41   104   105    1
    42    19    20    1
    43   123   122    1
    44    20    23    1
    45   105   106    2
    46    45    46    2
    47    45    52   am
    48     8     3   am
    49    23    24    1
    50    65    64   ar
    51   121   122    1
    52   121   120    1
    53     4     3    2
    54    52    58    1
    55    52    53    1
    56    58    57    1
    57     3     2    1
    58    66    64   ar
    59    55    54    2
    60    73    72    1
    61    73    74    1
    62    64    63    1
    63    24    25    1
    64    24    26    1
    65    72    71    1
    66   120   119    1
    67    54    53    1
    68    53    56    1
    69    57    56    1
    70     2     1    1
    71     2     5    1
    72    71    68    1
    73     6     5    1
    74   119   116    1
    75    99    97   ar
    76    99   101   ar
    77    63    60    1
    78    59    60    1
    79    97    96   ar
    80    60    61    1
    81   102   101    1
    82   110   111    1
    83     5     7    1
    84   114   111    1
    85   101   100   ar
    86   115   116    1
    87   115   112   am
    88    68    69    1
    89    68    67    1
    90   116   117    1
    91    96    95    1
    92    96    98   ar
    93   111   112    1
    94    95    92    1
    95    82    80    1
    96   100    98   ar
    97    61    62    2
    98    70    69    2
    99   112   113    2
   100    69    75   am
   101    89    87    1
   102   135   134    1
   103   117   118    2
   104    80    81    1
   105    80    79    1
   106    75    76    1
   107    92    91    1
   108    92    93    1
   109    87    88    1
   110    87    84    1
   111    91    85   am
   112    76    79    1
   113    76    77    1
   114    88    90    1
   115   134   133   ar
   116   134   132   ar
   117    85    86    2
   118    85    84    1
   119    93    94    2
   120    84    83    1
   121   133   131   ar
   122   132   130   ar
   123    77    78    2
   124   131   129   ar
   125   130   129   ar
   126   129   128    1
   127   127   126    2
   128   128   125    1
   129   126   125    1
   130   125   124    1
