@<TRIPOS>MOLECULE
tmp/2cb8B00.pdb
 99 97 0 0 0
SMALL
GASTEIGER

@<TRIPOS>ATOM
      1  N         10.2250   21.9560   49.1270 N.3     8  ALA8       -0.1245
      2  CA        10.4510   22.9660   48.1070 C.3     8  ALA8        0.1562
      3  C         10.2430   22.3920   46.7060 C.2     8  ALA8        0.2260
      4  O          9.8260   23.1000   45.7840 O.2     8  ALA8       -0.2867
      5  CB        11.8560   23.5520   48.2490 C.3     8  ALA8        0.0290
      6  N          6.0960   21.4460   46.3330 N.3    11  VAL11      -0.1231
      7  CA         5.1540   22.5620   46.2670 C.3    11  VAL11       0.1692
      8  C          4.8950   23.0060   44.8100 C.2    11  VAL11       0.2591
      9  O          3.8410   23.5290   44.4940 O.2    11  VAL11      -0.2718
     10  CB         5.5880   23.7410   47.1950 C.3    11  VAL11       0.0266
     11  CG1        6.7270   24.5350   46.5920 C.3    11  VAL11       0.0020
     12  CG2        4.4060   24.6540   47.5060 C.3    11  VAL11       0.0020
     13  N          5.8550   22.7400   43.9250 N.am   12  ARG12      -0.1980
     14  CA         5.7440   23.1210   42.5230 C.3    12  ARG12       0.1597
     15  C          4.7140   22.2890   41.7730 C.2    12  ARG12       0.2287
     16  O          4.2570   22.6770   40.6870 O.2    12  ARG12      -0.2864
     17  CB         7.1090   23.0090   41.8420 C.3    12  ARG12       0.0334
     18  CG         8.0190   24.1740   42.1540 C.3    12  ARG12       0.0492
     19  CD         9.2870   24.2180   41.3270 C.3    12  ARG12       0.2205
     20  NE        10.1500   25.3170   41.7580 N.pl3  12  ARG12      -0.0865
     21  CZ        10.2790   26.4690   41.1140 C.cat  12  ARG12       0.5346
     22  NH1        9.6060   26.6870   39.9910 N.pl3  12  ARG12       0.1354
     23  NH2       11.0850   27.4090   41.5950 N.pl3  12  ARG12       0.1354
     24  N          4.5420   31.0090   51.3760 N.3    26  ILE26      -0.1231
     25  CA         5.5530   30.1170   50.8310 C.3    26  ILE26       0.1692
     26  C          6.8160   30.8930   50.4010 C.2    26  ILE26       0.2592
     27  O          7.9460   30.4940   50.7200 O.2    26  ILE26      -0.2718
     28  CB         4.9190   29.2910   49.6670 C.3    26  ILE26       0.0266
     29  CG1        3.9970   28.2010   50.2500 C.3    26  ILE26       0.0019
     30  CG2        5.9770   28.7230   48.7020 C.3    26  ILE26       0.0020
     31  CD1        4.7540   27.1200   51.0450 C.3    26  ILE26       0.0001
     32  N          6.6120   31.9980   49.6890 N.am   27  TYR27      -0.1976
     33  CA         7.7550   32.8180   49.2600 C.3    27  TYR27       0.1639
     34  C          8.5280   33.3960   50.4540 C.2    27  TYR27       0.2290
     35  O          9.7480   33.2380   50.5440 O.2    27  TYR27      -0.2864
     36  CB         7.2810   33.9510   48.3370 C.3    27  TYR27       0.0560
     37  CG         8.4080   34.8950   47.9930 C.ar   27  TYR27      -0.0198
     38  CD1        9.3470   34.5570   47.0070 C.ar   27  TYR27      -0.0009
     39  CD2        8.5590   36.1130   48.6680 C.ar   27  TYR27      -0.0009
     40  CE1       10.3980   35.4260   46.6990 C.ar   27  TYR27       0.0417
     41  CE2        9.6080   36.9720   48.3780 C.ar   27  TYR27       0.0417
     42  CZ        10.5150   36.6240   47.4000 C.ar   27  TYR27       0.1957
     43  OH        11.5570   37.4820   47.1130 O.3    27  TYR27      -0.2866
     44  N         10.3430   30.7140   52.4530 N.3    30  TYR30      -0.1227
     45  CA        11.4660   30.1730   51.6850 C.3    30  TYR30       0.1736
     46  C         12.6660   31.0990   51.8000 C.2    30  TYR30       0.2595
     47  O         13.7670   30.6420   52.0570 O.2    30  TYR30      -0.2718
     48  CB        11.0750   30.0180   50.2150 C.3    30  TYR30       0.0548
     49  CG        12.2150   29.6420   49.3340 C.ar   30  TYR30      -0.0200
     50  CD1       12.5640   28.3050   49.1220 C.ar   30  TYR30      -0.0009
     51  CD2       12.9650   30.6360   48.6690 C.ar   30  TYR30      -0.0009
     52  CE1       13.6310   27.9690   48.2700 C.ar   30  TYR30       0.0417
     53  CE2       14.0270   30.3010   47.8170 C.ar   30  TYR30       0.0417
     54  CZ        14.3370   28.9810   47.6370 C.ar   30  TYR30       0.1957
     55  OH        15.3950   28.6880   46.8100 O.3    30  TYR30      -0.2866
     56  N         12.4380   32.3990   51.6260 N.am   31  LYS31      -0.1980
     57  CA        13.5400   33.3700   51.6870 C.3    31  LYS31       0.1596
     58  C         14.0680   33.4670   53.1020 C.2    31  LYS31       0.2287
     59  O         15.2450   33.5190   53.3270 O.2    31  LYS31      -0.2864
     60  CB        13.0670   34.7470   51.2030 C.3    31  LYS31       0.0298
     61  CG        12.7450   34.8000   49.7360 C.3    31  LYS31       0.0038
     62  CD        14.0330   34.7060   48.9400 C.3    31  LYS31       0.0206
     63  CE        13.8050   34.9280   47.4750 C.3    31  LYS31       0.1093
     64  NZ        15.0810   34.8380   46.7080 N.3    31  LYS31      -0.1314
     65  N          5.6540   40.6410   47.5810 N.3    53  LYS53      -0.1245
     66  CA         6.6500   39.6270   47.9270 C.3    53  LYS53       0.1561
     67  C          7.6570   40.1610   48.9310 C.2    53  LYS53       0.2260
     68  O          7.9670   39.4970   49.9300 O.2    53  LYS53      -0.2867
     69  CB         7.3670   39.1330   46.6720 C.3    53  LYS53       0.0271
     70  CG         6.5040   38.1860   45.8500 C.3    53  LYS53       0.0035
     71  CD         7.0570   38.0220   44.4470 C.3    53  LYS53       0.0206
     72  CE         8.4650   37.4290   44.4520 C.3    53  LYS53       0.1093
     73  NZ         8.9730   37.2890   43.0380 N.3    53  LYS53      -0.1314
     74  N          8.3050   38.9030   52.9730 N.3    57  TRP57      -0.1241
     75  CA         9.6040   38.5000   53.5040 C.3    57  TRP57       0.1605
     76  C         10.0230   39.4580   54.6250 C.2    57  TRP57       0.2264
     77  O         10.4650   39.0100   55.6980 O.2    57  TRP57      -0.2867
     78  CB        10.6080   38.4590   52.3530 C.3    57  TRP57       0.0550
     79  CG        11.9950   38.0490   52.7050 C.ar   57  TRP57       0.0003
     80  CD1       12.4360   37.5200   53.8830 C.ar   57  TRP57       0.0946
     81  CD2       13.1400   38.1400   51.8530 C.ar   57  TRP57       0.0152
     82  NE1       13.7860   37.2710   53.8130 N.ar   57  TRP57      -0.2442
     83  CE2       14.2510   37.6420   52.5760 C.ar   57  TRP57       0.0810
     84  CE3       13.3400   38.5750   50.5350 C.ar   57  TRP57       0.0012
     85  CZ2       15.5390   37.5880   52.0390 C.ar   57  TRP57       0.0191
     86  CZ3       14.6250   38.5170   49.9970 C.ar   57  TRP57       0.0001
     87  CH2       15.7040   38.0220   50.7440 C.ar   57  TRP57       0.0015
     88  N          7.7020   26.5380   56.7190 N.3    72  TYR72      -0.1241
     89  CA         7.6050   26.2570   55.2590 C.3    72  TYR72       0.1605
     90  C          7.2040   24.8080   55.0070 C.2    72  TYR72       0.2264
     91  O          6.3100   24.5350   54.2250 O.2    72  TYR72      -0.2867
     92  CB         8.9650   26.5200   54.5900 C.3    72  TYR72       0.0534
     93  CG         8.9480   26.3730   53.0810 C.ar   72  TYR72      -0.0201
     94  CD1        9.1920   25.1390   52.4590 C.ar   72  TYR72      -0.0009
     95  CD2        8.6920   27.4700   52.2690 C.ar   72  TYR72      -0.0009
     96  CE1        9.1800   24.9880   51.0890 C.ar   72  TYR72       0.0417
     97  CE2        8.6820   27.3370   50.8440 C.ar   72  TYR72       0.0417
     98  CZ         8.9180   26.1010   50.2910 C.ar   72  TYR72       0.1957
     99  OH         8.9110   25.9600   48.9060 O.3    72  TYR72      -0.2866
@<TRIPOS>BOND
     1    22    21    1
     2    16    15    2
     3    21    23    1
     4    21    20    2
     5    19    20    1
     6    19    18    1
     7    15    14    1
     8    17    18    1
     9    17    14    1
    10    14    13    1
    11    73    72    1
    12    13     8   am
    13    71    72    1
    14    71    70    1
    15     9     8    2
    16     8     7    1
    17     4     3    2
    18    70    69    1
    19     7     6    1
    20     7    10    1
    21    11    10    1
    22    69    66    1
    23    40    38   ar
    24    40    42   ar
    25     3     2    1
    26    64    63    1
    27    55    54    1
    28    38    37   ar
    29    43    42    1
    30    10    12    1
    31    42    41   ar
    32    63    62    1
    33    65    66    1
    34    54    53   ar
    35    54    52   ar
    36    53    51   ar
    37    66    67    1
    38    37    36    1
    39    37    39   ar
    40     2     5    1
    41     2     1    1
    42    52    50   ar
    43    36    33    1
    44    41    39   ar
    45    51    49   ar
    46    30    28    1
    47    99    98    1
    48    67    68    2
    49    62    61    1
    50    50    49   ar
    51    33    32    1
    52    33    34    1
    53    49    48    1
    54    28    29    1
    55    28    25    1
    56    32    26   am
    57    61    60    1
    58    86    84   ar
    59    86    87   ar
    60    48    45    1
    61    29    31    1
    62    98    97   ar
    63    98    96   ar
    64    26    27    2
    65    26    25    1
    66    34    35    2
    67    84    81   ar
    68    87    85   ar
    69    25    24    1
    70    97    95   ar
    71    96    94   ar
    72    60    57    1
    73    56    57    1
    74    56    46   am
    75    45    46    1
    76    45    44    1
    77    57    58    1
    78    46    47    2
    79    81    83   ar
    80    81    79   ar
    81    85    83   ar
    82    95    93   ar
    83    78    79    1
    84    78    75    1
    85    94    93   ar
    86    83    82   ar
    87    79    80   ar
    88    74    75    1
    89    93    92    1
    90    58    59    2
    91    75    76    1
    92    82    80   ar
    93    91    90    2
    94    92    89    1
    95    76    77    2
    96    90    89    1
    97    89    88    1
