@<TRIPOS>MOLECULE
tmp/2cbgA00.pdb
 96 94 0 0 0
SMALL
GASTEIGER

@<TRIPOS>ATOM
      1  N         30.0210   19.9230   17.0940 N.3    24  PRO24      -0.2102
      2  CA        29.4800   18.9460   16.1370 C.3    24  PRO24       0.1504
      3  C         28.4260   18.0580   16.8250 C.2    24  PRO24       0.2575
      4  O         28.1450   18.2130   18.0820 O.2    24  PRO24      -0.2718
      5  CB        30.7240   18.1370   15.6560 C.3    24  PRO24       0.0282
      6  CG        31.8520   18.5350   16.6260 C.3    24  PRO24       0.0208
      7  CD        31.2810   19.4190   17.7040 C.3    24  PRO24       0.0893
      8  N         27.8550   17.1320   16.0440 N.am   25  ILE25      -0.1980
      9  CA        26.6120   16.5320   16.4950 C.3    25  ILE25       0.1595
     10  C         26.6790   15.7590   17.8940 C.2    25  ILE25       0.2287
     11  O         25.6580   15.5810   18.6150 O.2    25  ILE25      -0.2864
     12  CB        26.0080   15.6920   15.3730 C.3    25  ILE25       0.0276
     13  CG1       24.5050   15.4680   15.6810 C.3    25  ILE25       0.0022
     14  CG2       26.8730   14.4180   15.2140 C.3    25  ILE25       0.0022
     15  CD1       23.6810   16.7590   15.3870 C.3    25  ILE25       0.0001
     16  N         30.9980   24.4350   14.2510 N.3    78  TYR78      -0.1227
     17  CA        31.6660   23.4240   13.5030 C.3    78  TYR78       0.1736
     18  C         30.6380   22.3380   13.1190 C.2    78  TYR78       0.2596
     19  O         29.9150   21.6500   13.9870 O.2    78  TYR78      -0.2718
     20  CB        32.8470   22.7890   14.2840 C.3    78  TYR78       0.0548
     21  CG        33.3710   21.5810   13.5420 C.ar   78  TYR78      -0.0200
     22  CD1       33.9410   21.7300   12.2710 C.ar   78  TYR78      -0.0009
     23  CD2       33.2280   20.3030   14.0760 C.ar   78  TYR78      -0.0009
     24  CE1       34.3900   20.6290   11.5410 C.ar   78  TYR78       0.0417
     25  CE2       33.6920   19.1990   13.4110 C.ar   78  TYR78       0.0417
     26  CZ        34.2510   19.3450   12.1480 C.ar   78  TYR78       0.1957
     27  OH        34.7020   18.2690   11.4830 O.3    78  TYR78      -0.2866
     28  N         30.5800   22.1410   11.8070 N.am   79  SER79      -0.1938
     29  CA        29.7310   21.0640   11.3670 C.3    79  SER79       0.2055
     30  C         28.3380   21.3730   11.8030 C.2    79  SER79       0.2642
     31  O         27.9040   22.5520   11.6420 O.2    79  SER79      -0.2714
     32  CB        30.2920   19.7900   11.8820 C.3    79  SER79       0.2130
     33  OG        29.4410   18.8750   11.3070 O.3    79  SER79      -0.2179
     34  N         27.6320   20.4410   12.4120 N.am   80  ALA80      -0.1977
     35  CA        26.2860   20.7170   12.8980 C.3    80  ALA80       0.1597
     36  C         26.2380   22.0200   13.7050 C.2    80  ALA80       0.2287
     37  O         25.2410   22.7210   13.6730 O.2    80  ALA80      -0.2864
     38  CB        25.8370   19.6000   13.7440 C.3    80  ALA80       0.0319
     39  N         25.2400   25.3790   11.9500 N.3    83  ASN83      -0.1240
     40  CA        23.7620   25.5980   11.8900 C.3    83  ASN83       0.1653
     41  C         23.1650   26.1390   13.1730 C.2    83  ASN83       0.2266
     42  O         22.2750   26.9800   13.1390 O.2    83  ASN83      -0.2867
     43  CB        22.9860   24.3390   11.3640 C.3    83  ASN83       0.1155
     44  CG        23.6600   23.7330   10.1460 C.2    83  ASN83       0.2627
     45  OD1       24.0740   22.6130   10.2090 O.2    83  ASN83      -0.2716
     46  ND2       23.8090   24.4970    9.0220 N.am   83  ASN83      -0.0877
     47  N         32.9740   23.9470    7.8370 N.3   106  ASP106     -0.1239
     48  CA        32.3880   22.6940    7.4360 C.3   106  ASP106      0.1674
     49  C         30.8630   22.5850    7.8270 C.2   106  ASP106      0.2266
     50  O         30.3850   21.5020    8.3050 O.2   106  ASP106     -0.2867
     51  CB        33.1610   21.5820    8.2290 C.3   106  ASP106      0.1410
     52  CG        33.1080   20.1910    7.5760 C.2   106  ASP106      0.3668
     53  OD1       32.8830   20.1150    6.2850 O.co2 106  ASP106     -0.2456
     54  OD2       33.2530   19.1090    8.3100 O.co2 106  ASP106     -0.2456
     55  N         20.6430   15.5980   17.0420 N.3   134  GLN134     -0.1245
     56  CA        20.2400   15.0930   15.7360 C.3   134  GLN134      0.1566
     57  C         18.8170   15.5050   15.3860 C.2   134  GLN134      0.2260
     58  O         18.4560   15.8550   14.2190 O.2   134  GLN134     -0.2867
     59  CB        20.3060   13.6130   15.7560 C.3   134  GLN134      0.0367
     60  CG        21.7190   13.1840   15.9490 C.3   134  GLN134      0.0905
     61  CD        21.9360   11.6960   15.8190 C.2   134  GLN134      0.2608
     62  OE1       21.1950   10.8240   16.3950 O.2   134  GLN134     -0.2717
     63  NE2       22.9970   11.3760   15.0860 N.am  134  GLN134     -0.0878
     64  N         18.4200   19.3880   14.9780 N.3   137  TRP137     -0.1241
     65  CA        19.0770   19.7450   13.7800 C.3   137  TRP137      0.1605
     66  C         18.1780   19.4080   12.5680 C.2   137  TRP137      0.2264
     67  O         17.9090   20.2730   11.6970 O.2   137  TRP137     -0.2867
     68  CB        20.4000   18.9580   13.7040 C.3   137  TRP137      0.0550
     69  CG        21.1680   19.4510   12.5720 C.ar  137  TRP137      0.0003
     70  CD1       21.9760   20.5860   12.5440 C.ar  137  TRP137      0.0946
     71  CD2       21.2050   18.8890   11.2180 C.ar  137  TRP137      0.0152
     72  NE1       22.4480   20.7500   11.2640 N.ar  137  TRP137     -0.2442
     73  CE2       22.0690   19.7030   10.4530 C.ar  137  TRP137      0.0810
     74  CE3       20.6120   17.7780   10.5950 C.ar  137  TRP137      0.0012
     75  CZ2       22.3320   19.4590    9.0840 C.ar  137  TRP137      0.0191
     76  CZ3       20.8570   17.5410    9.1940 C.ar  137  TRP137      0.0001
     77  CH2       21.6790   18.3980    8.4750 C.ar  137  TRP137      0.0015
     78  N         35.8860   16.3330    6.0270 N.3   187  HIS187     -0.1226
     79  CA        34.7500   16.6590    6.9170 C.3   187  HIS187      0.1752
     80  C         35.0090   16.2500    8.3590 C.2   187  HIS187      0.2595
     81  O         35.4920   17.0930    9.2070 O.2   187  HIS187     -0.2718
     82  CB        33.3840   16.1670    6.3820 C.3   187  HIS187      0.0759
     83  CG        33.0850   16.6960    5.0210 C.ar  187  HIS187      0.0818
     84  ND1       34.0280   16.6820    3.9910 N.ar  187  HIS187     -0.2268
     85  CD2       31.9800   17.3010    4.5110 C.ar  187  HIS187      0.1154
     86  CE1       33.5110   17.2610    2.9100 C.ar  187  HIS187      0.1986
     87  NE2       32.2700   17.6410    3.1910 N.ar  187  HIS187     -0.2212
     88  N         34.7570   14.9690    8.6260 N.am  188  LYS188     -0.1980
     89  CA        35.1080   14.4130    9.9510 C.3   188  LYS188      0.1596
     90  C         36.3060   15.0980   10.6850 C.2   188  LYS188      0.2287
     91  O         36.1250   15.3420   11.8260 O.2   188  LYS188     -0.2864
     92  CB        35.3450   12.8530    9.8460 C.3   188  LYS188      0.0298
     93  CG        36.4010   12.4880    8.6310 C.3   188  LYS188      0.0038
     94  CD        36.2970   11.0670    8.0750 C.3   188  LYS188      0.0206
     95  CE        37.2610   10.0990    8.8440 C.3   188  LYS188      0.1093
     96  NZ        36.5340    9.4340    9.9760 N.3   188  LYS188     -0.1314
@<TRIPOS>BOND
     1    86    87   ar
     2    86    84   ar
     3    87    85   ar
     4    84    83   ar
     5    85    83   ar
     6    83    82    1
     7    78    79    1
     8    53    52   ar
     9    82    79    1
    10    79    80    1
    11    48    49    1
    12    48    47    1
    13    48    51    1
    14    52    51    1
    15    52    54   ar
    16    49    50    2
    17    94    93    1
    18    94    95    1
    19    80    88   am
    20    80    81    2
    21    77    75   ar
    22    77    76   ar
    23    88    89    1
    24    93    92    1
    25    95    96    1
    26    46    44   am
    27    75    73   ar
    28    76    74   ar
    29    92    89    1
    30    89    90    1
    31    44    45    2
    32    44    43    1
    33    73    71   ar
    34    73    72   ar
    35    74    71   ar
    36    90    91    2
    37    71    69   ar
    38    72    70   ar
    39    33    32    1
    40    43    40    1
    41    29    30    1
    42    29    28    1
    43    29    32    1
    44    27    26    1
    45    24    26   ar
    46    24    22   ar
    47    31    30    2
    48    67    66    2
    49    30    34   am
    50    28    18   am
    51    40    39    1
    52    40    41    1
    53    26    25   ar
    54    22    21   ar
    55    34    35    1
    56    70    69   ar
    57    66    65    1
    58    69    68    1
    59    35    36    1
    60    35    38    1
    61    18    17    1
    62    18    19    2
    63    42    41    2
    64    25    23   ar
    65    17    16    1
    66    17    20    1
    67    21    23   ar
    68    21    20    1
    69    37    36    2
    70    68    65    1
    71    65    64    1
    72    58    57    2
    73    63    61   am
    74    14    12    1
    75    12    13    1
    76    12     9    1
    77    57    56    1
    78    15    13    1
    79     5     2    1
    80     5     6    1
    81    56    59    1
    82    56    55    1
    83    59    60    1
    84    61    60    1
    85    61    62    2
    86     8     9    1
    87     8     3   am
    88     2     3    1
    89     2     1    1
    90     9    10    1
    91     6     7    1
    92     3     4    2
    93     1     7    1
    94    10    11    2
