@<TRIPOS>MOLECULE
tmp/2cbjB01.pdb
 163 158 0 0 0
SMALL
GASTEIGER

@<TRIPOS>ATOM
      1  N         -1.0690    0.2640    9.1390 N.3   148  GLY148     -0.1210
      2  CA        -1.0660   -0.0320   10.5630 C.3   148  GLY148      0.1956
      3  C         -1.1090    1.1920   11.4300 C.2   148  GLY148      0.2612
      4  O         -0.8960    1.1050   12.6180 O.2   148  GLY148     -0.2717
      5  N         -1.4100    2.3250   10.8200 N.am  149  PHE149     -0.1962
      6  CA        -1.4480    3.6090   11.4890 C.3   149  PHE149      0.1771
      7  C         -2.8090    3.8820   12.1410 C.2   149  PHE149      0.2619
      8  O         -3.8270    3.2330   11.8330 O.2   149  PHE149     -0.2715
      9  CB        -1.1250    4.7300   10.4800 C.3   149  PHE149      0.0574
     10  CG        -1.9870    4.7150    9.2430 C.ar  149  PHE149     -0.0200
     11  CD1       -3.2560    5.2990    9.2520 C.ar  149  PHE149     -0.0042
     12  CD2       -1.5150    4.1420    8.0580 C.ar  149  PHE149     -0.0042
     13  CE1       -4.0830    5.2950    8.1070 C.ar  149  PHE149     -0.0003
     14  CE2       -2.3050    4.1360    6.9080 C.ar  149  PHE149     -0.0003
     15  CZ        -3.6180    4.7130    6.9400 C.ar  149  PHE149     -0.0000
     16  N         -2.8070    4.8530   13.0460 N.am  150  TYR150     -0.1974
     17  CA        -4.0200    5.3920   13.6110 C.3   150  TYR150      0.1639
     18  C         -4.4920    6.5150   12.6750 C.2   150  TYR150      0.2290
     19  O         -3.7060    7.0420   11.8960 O.2   150  TYR150     -0.2864
     20  CB        -3.7070    5.9540   14.9950 C.3   150  TYR150      0.0560
     21  CG        -3.3790    4.9170   16.0560 C.ar  150  TYR150     -0.0198
     22  CD1       -2.0720    4.5070   16.2790 C.ar  150  TYR150     -0.0009
     23  CD2       -4.3890    4.3650   16.8570 C.ar  150  TYR150     -0.0009
     24  CE1       -1.7650    3.5700   17.2600 C.ar  150  TYR150      0.0417
     25  CE2       -4.0880    3.4210   17.8420 C.ar  150  TYR150      0.0417
     26  CZ        -2.7750    3.0310   18.0370 C.ar  150  TYR150      0.1957
     27  OH        -2.4930    2.0900   19.0120 O.3   150  TYR150     -0.2866
     28  N         -5.5310    0.5150   12.6150 N.3   179  LYS179     -0.1245
     29  CA        -5.8920    0.6400   14.0220 C.3   179  LYS179      0.1561
     30  C         -7.3300    1.0720   14.1940 C.2   179  LYS179      0.2260
     31  O         -8.0040    0.6230   15.1280 O.2   179  LYS179     -0.2867
     32  CB        -4.9650    1.6130   14.7570 C.3   179  LYS179      0.0271
     33  CG        -3.5400    1.0960   14.9370 C.3   179  LYS179      0.0035
     34  CD        -3.5170   -0.1010   15.9080 C.3   179  LYS179      0.0206
     35  CE        -2.1480   -0.3020   16.4680 C.3   179  LYS179      0.1093
     36  NZ        -1.2740   -0.9330   15.4210 N.3   179  LYS179     -0.1314
     37  N          0.8880   -5.1380   19.5860 N.3   258  ASP258     -0.1225
     38  CA         1.4770   -3.8270   19.8320 C.3   258  ASP258      0.1805
     39  C          0.4440   -2.9190   20.4750 C.2   258  ASP258      0.2597
     40  O         -0.7840   -3.1150   20.3070 O.2   258  ASP258     -0.2718
     41  CB         1.9870   -3.2090   18.5260 C.3   258  ASP258      0.1424
     42  CG         0.8720   -2.9230   17.5300 C.2   258  ASP258      0.3668
     43  OD1        0.1510   -3.8710   17.1360 O.co2 258  ASP258     -0.2456
     44  OD2        0.7220   -1.7450   17.1220 O.co2 258  ASP258     -0.2456
     45  N          0.9360   -1.9440   21.2440 N.am  259  ASP259     -0.1974
     46  CA         0.0770   -0.8960   21.7830 C.3   259  ASP259      0.1709
     47  C         -0.9970   -1.3350   22.8050 C.2   259  ASP259      0.2293
     48  O         -2.0920   -0.7290   22.8760 O.2   259  ASP259     -0.2864
     49  CB        -0.5530   -0.1400   20.6140 C.3   259  ASP259      0.1436
     50  CG         0.4650    0.6800   19.8430 C.2   259  ASP259      0.3671
     51  OD1        0.0210    1.5200   19.0670 O.co2 259  ASP259     -0.2456
     52  OD2        1.7030    0.4980   20.0240 O.co2 259  ASP259     -0.2456
     53  N          3.5210   -9.0940   15.8870 N.3   292  VAL292     -0.1245
     54  CA         4.3430   -8.1110   16.5790 C.3   292  VAL292      0.1561
     55  C          4.0550   -8.1960   18.0930 C.2   292  VAL292      0.2260
     56  O          2.8930   -8.1940   18.4840 O.2   292  VAL292     -0.2867
     57  CB         4.1280   -6.6730   15.9940 C.3   292  VAL292      0.0252
     58  CG1        2.7560   -6.1480   16.3270 C.3   292  VAL292      0.0019
     59  CG2        5.2020   -5.7290   16.4640 C.3   292  VAL292      0.0019
     60  N          8.1730   -4.1850   21.1190 N.3   296  TYR296     -0.1241
     61  CA         8.4560   -4.3050   19.6770 C.3   296  TYR296      0.1605
     62  C          9.5380   -3.3510   19.1550 C.2   296  TYR296      0.2264
     63  O          9.7740   -3.2910   17.9540 O.2   296  TYR296     -0.2867
     64  CB         7.1710   -4.1300   18.8400 C.3   296  TYR296      0.0534
     65  CG         6.4680   -2.8280   19.1110 C.ar  296  TYR296     -0.0201
     66  CD1        5.3380   -2.7810   19.9250 C.ar  296  TYR296     -0.0009
     67  CD2        6.9510   -1.6250   18.5770 C.ar  296  TYR296     -0.0009
     68  CE1        4.6830   -1.5510   20.1800 C.ar  296  TYR296      0.0417
     69  CE2        6.3170   -0.3920   18.8430 C.ar  296  TYR296      0.0417
     70  CZ         5.1940   -0.3720   19.6370 C.ar  296  TYR296      0.1957
     71  OH         4.6060    0.8280   19.9260 O.3   296  TYR296     -0.2866
     72  N         10.4600   -2.6760   15.2610 N.3   327  THR327     -0.1218
     73  CA        10.5310   -1.3870   14.5850 C.3   327  THR327      0.1862
     74  C         11.9370   -0.7750   14.4990 C.2   327  THR327      0.2287
     75  O         12.0880    0.3050   13.9460 O.2   327  THR327     -0.2866
     76  CB         9.5640   -0.3790   15.2370 C.3   327  THR327      0.1770
     77  OG1        9.9630   -0.1540   16.6000 O.3   327  THR327     -0.2211
     78  CG2        8.1110   -0.9090   15.2020 C.3   327  THR327      0.0375
     79  N         10.4030    3.1920   18.4590 N.3   331  VAL331     -0.1231
     80  CA         9.1600    3.1160   17.6660 C.3   331  VAL331      0.1692
     81  C          9.2940    3.9230   16.3740 C.2   331  VAL331      0.2591
     82  O          8.9800    3.4150   15.2860 O.2   331  VAL331     -0.2718
     83  CB         7.8700    3.5830   18.4450 C.3   331  VAL331      0.0266
     84  CG1        6.6200    3.5230   17.5330 C.3   331  VAL331      0.0020
     85  CG2        7.6350    2.7600   19.7260 C.3   331  VAL331      0.0020
     86  N          9.7120    5.1830   16.5150 N.am  332  VAL332     -0.1980
     87  CA        10.1180    6.0200   15.3930 C.3   332  VAL332      0.1595
     88  C         11.5450    6.4850   15.7020 C.2   332  VAL332      0.2287
     89  O         11.7970    7.2350   16.6590 O.2   332  VAL332     -0.2864
     90  CB         9.1890    7.2380   15.1690 C.3   332  VAL332      0.0276
     91  CG1        9.6990    8.1010   13.9650 C.3   332  VAL332      0.0022
     92  CG2        7.6830    6.8120   14.9810 C.3   332  VAL332      0.0022
     93  N          8.9430   -3.5930   10.8790 N.3   355  TRP355     -0.1241
     94  CA         7.7900   -2.7280   10.7980 C.3   355  TRP355      0.1605
     95  C          8.3680   -1.3190   10.8770 C.2   355  TRP355      0.2264
     96  O          8.6780   -0.8450   11.9690 O.2   355  TRP355     -0.2867
     97  CB         6.8830   -2.9740   12.0200 C.3   355  TRP355      0.0550
     98  CG         5.7030   -2.0050   12.1430 C.ar  355  TRP355      0.0003
     99  CD1        5.7240   -0.6120   12.0240 C.ar  355  TRP355      0.0946
    100  CD2        4.3420   -2.3610   12.4070 C.ar  355  TRP355      0.0152
    101  NE1        4.4460   -0.1140   12.1710 N.ar  355  TRP355     -0.2442
    102  CE2        3.5850   -1.1550   12.4170 C.ar  355  TRP355      0.0810
    103  CE3        3.6800   -3.5920   12.6330 C.ar  355  TRP355      0.0012
    104  CZ2        2.2120   -1.1440   12.6610 C.ar  355  TRP355      0.0191
    105  CZ3        2.3330   -3.5850   12.8750 C.ar  355  TRP355      0.0001
    106  CH2        1.6000   -2.3640   12.8760 C.ar  355  TRP355      0.0015
    107  N          8.3050    2.5640   10.8760 N.3   357  ASN357     -0.1240
    108  CA         7.3790    3.6680   11.0720 C.3   357  ASN357      0.1653
    109  C          7.7930    4.9420   10.3280 C.2   357  ASN357      0.2266
    110  O          7.9850    5.9980   10.9360 O.2   357  ASN357     -0.2867
    111  CB         7.1360    3.9060   12.5590 C.3   357  ASN357      0.1155
    112  CG         6.2340    2.8450   13.1750 C.2   357  ASN357      0.2627
    113  OD1        5.2210    2.4960   12.5910 O.2   357  ASN357     -0.2716
    114  ND2        6.5860    2.3450   14.3700 N.am  357  ASN357     -0.0877
    115  N          4.7590    7.0110    8.0170 N.3   360  VAL360     -0.1245
    116  CA         3.6060    7.2700    8.9170 C.3   360  VAL360      0.1561
    117  C          3.7670    8.6070    9.6730 C.2   360  VAL360      0.2260
    118  O          4.8730    8.9190   10.1710 O.2   360  VAL360     -0.2867
    119  CB         3.3470    6.1100    9.9180 C.3   360  VAL360      0.0252
    120  CG1        4.5840    5.8040   10.7720 C.3   360  VAL360      0.0019
    121  CG2        2.1440    6.4080   10.8060 C.3   360  VAL360      0.0019
    122  N          0.9990    9.6420   11.9940 N.3   362  ASP362     -0.1225
    123  CA        -0.1660    9.7120   12.8870 C.3   362  ASP362      0.1805
    124  C          0.1350   10.4260   14.2060 C.2   362  ASP362      0.2597
    125  O         -0.7510   10.9700   14.8870 O.2   362  ASP362     -0.2718
    126  CB        -0.8130    8.3280   13.1430 C.3   362  ASP362      0.1424
    127  CG         0.1810    7.2460   13.6060 C.2   362  ASP362      0.3668
    128  OD1        1.3440    7.5560   13.9870 O.co2 362  ASP362     -0.2456
    129  OD2       -0.2380    6.0540   13.5860 O.co2 362  ASP362     -0.2456
    130  N          1.4060   10.4430   14.5420 N.am  363  TYR363     -0.1976
    131  CA         1.8200   10.9200   15.8330 C.3   363  TYR363      0.1639
    132  C          2.1520   12.4090   15.7740 C.2   363  TYR363      0.2290
    133  O          2.3800   13.0330   16.8210 O.2   363  TYR363     -0.2864
    134  CB         3.0210   10.1120   16.2900 C.3   363  TYR363      0.0560
    135  CG         4.1730   10.1870   15.3160 C.ar  363  TYR363     -0.0198
    136  CD1        5.1380   11.1700   15.4280 C.ar  363  TYR363     -0.0009
    137  CD2        4.3160    9.2440   14.3020 C.ar  363  TYR363     -0.0009
    138  CE1        6.2050   11.2220   14.5620 C.ar  363  TYR363      0.0417
    139  CE2        5.3820    9.2820   13.4340 C.ar  363  TYR363      0.0417
    140  CZ         6.3250   10.2850   13.5640 C.ar  363  TYR363      0.1957
    141  OH         7.4030   10.3420   12.7090 O.3   363  TYR363     -0.2866
    142  N          5.2040    1.4810    7.4590 N.3   390  ASN390     -0.1240
    143  CA         3.9630    2.0140    7.9170 C.3   390  ASN390      0.1653
    144  C          3.9140    3.3950    7.2920 C.2   390  ASN390      0.2266
    145  O          4.7370    4.2580    7.6170 O.2   390  ASN390     -0.2867
    146  CB         3.9490    2.0520    9.4600 C.3   390  ASN390      0.1155
    147  CG         2.5700    2.2930   10.0220 C.2   390  ASN390      0.2627
    148  OD1        1.5710    2.0850    9.3230 O.2   390  ASN390     -0.2716
    149  ND2        2.4980    2.7500   11.2910 N.am  390  ASN390     -0.0877
    150  N          9.6580   11.4970   21.7350 N.3   451  TRP451     -0.1241
    151  CA        10.0220   10.1000   21.4870 C.3   451  TRP451      0.1605
    152  C         10.2040    9.7360   20.0020 C.2   451  TRP451      0.2264
    153  O         10.8920    8.7670   19.6890 O.2   451  TRP451     -0.2867
    154  CB         9.0080    9.1570   22.1740 C.3   451  TRP451      0.0550
    155  CG         7.6370    9.2250   21.5880 C.ar  451  TRP451      0.0003
    156  CD1        6.5860   10.0060   22.0180 C.ar  451  TRP451      0.0946
    157  CD2        7.1550    8.4960   20.4490 C.ar  451  TRP451      0.0152
    158  NE1        5.4890    9.8130   21.2120 N.ar  451  TRP451     -0.2442
    159  CE2        5.8040    8.8830   20.2460 C.ar  451  TRP451      0.0810
    160  CE3        7.7260    7.5480   19.5890 C.ar  451  TRP451      0.0012
    161  CZ2        5.0220    8.3580   19.2040 C.ar  451  TRP451      0.0191
    162  CZ3        6.9480    7.0240   18.5570 C.ar  451  TRP451      0.0001
    163  CH2        5.6100    7.4290   18.3780 C.ar  451  TRP451      0.0015
@<TRIPOS>BOND
     1    14    15   ar
     2    14    12   ar
     3    15    13   ar
     4   144   145    2
     5   144   143    1
     6   142   143    1
     7   143   146    1
     8   115   116    1
     9    12    10   ar
    10    13    11   ar
    11   116   117    1
    12   116   119    1
    13     1     2    1
    14    10    11   ar
    15    10     9    1
    16   148   147    2
    17   146   147    1
    18   117   118    2
    19   119   120    1
    20   119   121    1
    21   147   149   am
    22   109   110    2
    23   109   108    1
    24     9     6    1
    25     2     3    1
    26    94    95    1
    27    94    93    1
    28    94    97    1
    29     5     3   am
    30     5     6    1
    31   107   108    1
    32    95    96    2
    33   108   111    1
    34     3     4    2
    35     6     7    1
    36     8     7    2
    37    19    18    2
    38   122   123    1
    39    97    98    1
    40    99    98   ar
    41    99   101   ar
    42     7    16   am
    43    98   100   ar
    44   101   102   ar
    45   100   102   ar
    46   100   103   ar
    47   102   104   ar
    48   111   112    1
    49   113   112    2
    50    28    29    1
    51   103   105   ar
    52   104   106   ar
    53    18    17    1
    54   141   140    1
    55   105   106   ar
    56   123   126    1
    57   123   124    1
    58    16    17    1
    59   126   127    1
    60   112   114   am
    61   139   140   ar
    62   139   137   ar
    63   140   138   ar
    64   129   127   ar
    65   127   128   ar
    66    17    20    1
    67    75    74    2
    68    91    90    1
    69    29    30    1
    70    29    32    1
    71    30    31    2
    72   124   130   am
    73   124   125    2
    74   137   135   ar
    75    74    73    1
    76   130   131    1
    77   138   136   ar
    78    73    76    1
    79    73    72    1
    80    32    33    1
    81    33    34    1
    82    92    90    1
    83    20    21    1
    84    90    87    1
    85    78    76    1
    86    76    77    1
    87    82    81    2
    88   135   136   ar
    89   135   134    1
    90    87    88    1
    91    87    86    1
    92    36    35    1
    93    88    89    2
    94   132   131    1
    95   132   133    2
    96   131   134    1
    97    53    54    1
    98    34    35    1
    99    57    58    1
   100    57    59    1
   101    57    54    1
   102    21    22   ar
   103    21    23   ar
   104    22    24   ar
   105    81    86   am
   106    81    80    1
   107    54    55    1
   108    23    25   ar
   109    44    42   ar
   110    43    42   ar
   111    24    26   ar
   112    42    41    1
   113    84    83    1
   114    80    83    1
   115    80    79    1
   116    25    26   ar
   117    63    62    2
   118    26    27    1
   119    55    56    2
   120   163   162   ar
   121   163   161   ar
   122    83    85    1
   123    41    38    1
   124   162   160   ar
   125    67    69   ar
   126    67    65   ar
   127    64    65    1
   128    64    61    1
   129    69    70   ar
   130    51    50   ar
   131    65    66   ar
   132    62    61    1
   133   161   159   ar
   134    37    38    1
   135   160   157   ar
   136    70    71    1
   137    70    68   ar
   138    61    60    1
   139   153   152    2
   140    38    39    1
   141    50    52   ar
   142    50    49    1
   143    66    68   ar
   144   152   151    1
   145   159   157   ar
   146   159   158   ar
   147    40    39    2
   148   157   155   ar
   149    39    45   am
   150    49    46    1
   151   158   156   ar
   152    45    46    1
   153   151   150    1
   154   151   154    1
   155   155   156   ar
   156   155   154    1
   157    46    47    1
   158    47    48    2
