@<TRIPOS>MOLECULE
tmp/2cbmA00.pdb
 82 81 0 0 0
SMALL
GASTEIGER

@<TRIPOS>ATOM
      1  N         14.0480   20.5550   44.9650 N.3    37  TRP37      -0.1241
      2  CA        14.9050   19.9050   43.9720 C.3    37  TRP37       0.1605
      3  C         14.5590   20.1910   42.5180 C.2    37  TRP37       0.2264
      4  O         13.5020   20.7220   42.2000 O.2    37  TRP37      -0.2867
      5  CB        14.8320   18.3800   44.1080 C.3    37  TRP37       0.0550
      6  CG        15.2840   17.8020   45.3870 C.ar   37  TRP37       0.0003
      7  CD1       14.5600   17.6770   46.5410 C.ar   37  TRP37       0.0946
      8  CD2       16.5630   17.2190   45.6460 C.ar   37  TRP37       0.0152
      9  NE1       15.3120   17.0450   47.5020 N.ar   37  TRP37      -0.2442
     10  CE2       16.5450   16.7520   46.9820 C.ar   37  TRP37       0.0810
     11  CE3       17.7230   17.0420   44.8800 C.ar   37  TRP37       0.0012
     12  CZ2       17.6480   16.1160   47.5700 C.ar   37  TRP37       0.0191
     13  CZ3       18.8210   16.4090   45.4650 C.ar   37  TRP37       0.0001
     14  CH2       18.7730   15.9530   46.7970 C.ar   37  TRP37       0.0015
     15  N         20.4620   15.3910   40.2700 N.3    45  TRP45      -0.1241
     16  CA        19.4820   16.2830   40.8840 C.3    45  TRP45       0.1605
     17  C         20.2050   17.2950   41.7660 C.2    45  TRP45       0.2264
     18  O         21.1020   16.9350   42.5270 O.2    45  TRP45      -0.2867
     19  CB        18.4870   15.5070   41.7520 C.3    45  TRP45       0.0550
     20  CG        17.6540   14.4940   41.0310 C.ar   45  TRP45       0.0003
     21  CD1       18.0680   13.2870   40.5420 C.ar   45  TRP45       0.0946
     22  CD2       16.2440   14.5650   40.7840 C.ar   45  TRP45       0.0152
     23  NE1       16.9990   12.5970   40.0140 N.ar   45  TRP45      -0.2442
     24  CE2       15.8680   13.3580   40.1500 C.ar   45  TRP45       0.0810
     25  CE3       15.2590   15.5300   41.0410 C.ar   45  TRP45       0.0012
     26  CZ2       14.5440   13.0880   39.7690 C.ar   45  TRP45       0.0191
     27  CZ3       13.9380   15.2630   40.6610 C.ar   45  TRP45       0.0001
     28  CH2       13.5960   14.0490   40.0330 C.ar   45  TRP45       0.0015
     29  N         10.8100   20.4100   42.2440 N.3    94  GLN94      -0.1245
     30  CA         9.9620   19.6090   43.1140 C.3    94  GLN94       0.1566
     31  C         10.4050   19.8100   44.5540 C.2    94  GLN94       0.2260
     32  O         11.4970   20.3210   44.8180 O.2    94  GLN94      -0.2867
     33  CB        10.1000   18.1140   42.7880 C.3    94  GLN94       0.0367
     34  CG        10.1580   17.7720   41.3030 C.3    94  GLN94       0.0905
     35  CD        10.1900   16.2760   41.0600 C.2    94  GLN94       0.2608
     36  OE1       10.4950   15.4980   41.9650 O.2    94  GLN94      -0.2717
     37  NE2        9.8840   15.8650   39.8340 N.am   94  GLN94      -0.0878
     38  N         10.8800   17.5520   47.9820 N.3    96  GLY96      -0.1210
     39  CA        10.9170   16.1580   48.3850 C.3    96  GLY96       0.1956
     40  C         11.3760   15.8720   49.7960 C.2    96  GLY96       0.2612
     41  O         11.9760   16.7230   50.4580 O.2    96  GLY96      -0.2717
     42  N         11.0560   14.6640   50.2580 N.am   97  LEU97      -0.1965
     43  CA        11.4520   14.1750   51.5740 C.3    97  LEU97       0.1728
     44  C         12.2910   12.9400   51.2710 C.2    97  LEU97       0.2616
     45  O         11.8400   12.0520   50.5460 O.2    97  LEU97      -0.2715
     46  CB        10.2380   13.7420   52.4100 C.3    97  LEU97       0.0311
     47  CG         9.1990   14.7600   52.8810 C.3    97  LEU97       0.0022
     48  CD1        8.4900   15.3670   51.6780 C.3    97  LEU97       0.0001
     49  CD2        8.1870   14.0580   53.7830 C.3    97  LEU97       0.0001
     50  N         13.5020   12.8840   51.8150 N.am   98  SER98      -0.1950
     51  CA        14.3840   11.7480   51.5820 C.3    98  SER98       0.1924
     52  C         15.1420   11.3740   52.8550 C.2    98  SER98       0.2314
     53  O         15.5790   12.2510   53.6090 O.2    98  SER98      -0.2863
     54  CB        15.3710   12.0810   50.4540 C.3    98  SER98       0.2116
     55  OG        16.0860   13.2730   50.7300 O.3    98  SER98      -0.2180
     56  N         18.5510    8.0660   50.8310 N.3   102  GLY102     -0.1210
     57  CA        18.1060    8.6780   49.5940 C.3   102  GLY102      0.1956
     58  C         16.7300    8.1770   49.2010 C.2   102  GLY102      0.2612
     59  O         16.2580    8.4160   48.0900 O.2   102  GLY102     -0.2717
     60  N         16.0750    7.4760   50.1180 N.am  103  ASN103     -0.1960
     61  CA        14.7530    6.9410   49.8430 C.3   103  ASN103      0.1819
     62  C         13.6390    7.7720   50.4710 C.2   103  ASN103      0.2622
     63  O         13.8790    8.5870   51.3600 O.2   103  ASN103     -0.2715
     64  CB        14.6670    5.4900   50.3310 C.3   103  ASN103      0.1195
     65  CG        15.6560    4.5830   49.6160 C.2   103  ASN103      0.2630
     66  OD1       15.8100    4.6670   48.4020 O.2   103  ASN103     -0.2716
     67  ND2       16.3210    3.7100   50.3640 N.am  103  ASN103     -0.0877
     68  N         12.4200    7.5560   49.9870 N.am  104  GLY104     -0.1940
     69  CA        11.2710    8.2790   50.5000 C.3   104  GLY104      0.1998
     70  C         10.2040    8.4450   49.4330 C.2   104  GLY104      0.2480
     71  O         10.2750    7.8050   48.3750 O.2   104  GLY104     -0.2729
     72  N          9.2010    9.3050   49.6820 N.am  105  PRO105     -0.2726
     73  CA         8.1020    9.5720   48.7530 C.3   105  PRO105      0.1402
     74  C          8.5930   10.1830   47.4450 C.2   105  PRO105      0.2269
     75  O          9.6690   10.7790   47.3850 O.2   105  PRO105     -0.2865
     76  CB         7.2250   10.5580   49.5230 C.3   105  PRO105      0.0296
     77  CG         7.5400   10.2730   50.9570 C.3   105  PRO105      0.0237
     78  CD         9.0240   10.0750   50.9250 C.3   105  PRO105      0.0939
     79  N          8.9710   12.8320   44.5850 N.3   107  GLY107     -0.1225
     80  CA         9.0090   14.2770   44.7100 C.3   107  GLY107      0.1811
     81  C          7.7030   14.8970   44.2450 C.2   107  GLY107      0.2280
     82  O          7.0410   14.3620   43.3530 O.2   107  GLY107     -0.2866
@<TRIPOS>BOND
     1    26    28   ar
     2    26    24   ar
     3    37    35   am
     4    23    24   ar
     5    23    21   ar
     6    28    27   ar
     7    24    22   ar
     8    15    16    1
     9    21    20   ar
    10    27    25   ar
    11    22    20   ar
    12    22    25   ar
    13    16    19    1
    14    16    17    1
    15    20    19    1
    16    35    34    1
    17    35    36    2
    18    34    33    1
    19    17    18    2
    20     4     3    2
    21    29    30    1
    22     3     2    1
    23    33    30    1
    24    30    31    1
    25    82    81    2
    26     2     5    1
    27     2     1    1
    28     5     6    1
    29    81    80    1
    30    31    32    2
    31    79    80    1
    32    11    13   ar
    33    11     8   ar
    34     6     8   ar
    35     6     7   ar
    36    13    14   ar
    37     8    10   ar
    38     7     9   ar
    39    14    12   ar
    40    10     9   ar
    41    10    12   ar
    42    75    74    2
    43    74    73    1
    44    38    39    1
    45    59    58    2
    46    71    70    2
    47    39    40    1
    48    66    65    2
    49    73    76    1
    50    73    72    1
    51    58    57    1
    52    58    60   am
    53    70    72   am
    54    70    69    1
    55    76    77    1
    56    57    56    1
    57    65    64    1
    58    65    67   am
    59    72    78    1
    60    40    42   am
    61    40    41    2
    62    61    60    1
    63    61    64    1
    64    61    62    1
    65    68    62   am
    66    68    69    1
    67    42    43    1
    68    54    55    1
    69    54    51    1
    70    62    63    2
    71    45    44    2
    72    78    77    1
    73    44    43    1
    74    44    50   am
    75    43    46    1
    76    51    50    1
    77    51    52    1
    78    48    47    1
    79    46    47    1
    80    52    53    2
    81    47    49    1
