@<TRIPOS>MOLECULE
tmp/2cboA01.pdb
 99 97 0 0 0
SMALL
GASTEIGER

@<TRIPOS>ATOM
      1  N          5.4600   19.1840   -1.4690 N.3    37  TRP37      -0.1241
      2  CA         4.3520   18.2380   -1.3400 C.3    37  TRP37       0.1605
      3  C          3.4960   18.1640   -2.6000 C.2    37  TRP37       0.2264
      4  O          3.5160   19.0640   -3.4390 O.2    37  TRP37      -0.2867
      5  CB         3.4380   18.6270   -0.1760 C.3    37  TRP37       0.0550
      6  CG         4.0550   18.4950    1.1650 C.ar   37  TRP37       0.0003
      7  CD1        4.8470   19.4060    1.7990 C.ar   37  TRP37       0.0946
      8  CD2        3.9520   17.3690    2.0400 C.ar   37  TRP37       0.0152
      9  NE1        5.2470   18.9180    3.0170 N.ar   37  TRP37      -0.2442
     10  CE2        4.7130   17.6670    3.1910 C.ar   37  TRP37       0.0810
     11  CE3        3.2910   16.1330    1.9640 C.ar   37  TRP37       0.0012
     12  CZ2        4.8350   16.7720    4.2610 C.ar   37  TRP37       0.0191
     13  CZ3        3.4130   15.2420    3.0280 C.ar   37  TRP37       0.0001
     14  CH2        4.1800   15.5680    4.1600 C.ar   37  TRP37       0.0015
     15  N         -7.2840   13.7170   -0.2970 N.3    43  GLY43      -0.1225
     16  CA        -6.8940   13.6180    1.1010 C.3    43  GLY43       0.1811
     17  C         -5.5570   12.9400    1.3560 C.2    43  GLY43       0.2280
     18  O         -5.2020   12.6780    2.5090 O.2    43  GLY43      -0.2866
     19  N         -1.3860   13.1680    0.6140 N.3    45  TRP45      -0.1241
     20  CA        -0.2520   13.9520    0.1360 C.3    45  TRP45       0.1605
     21  C          1.0760   13.2160    0.3200 C.2    45  TRP45       0.2264
     22  O          1.2610   12.4840    1.2900 O.2    45  TRP45      -0.2867
     23  CB        -0.1880   15.2970    0.8680 C.3    45  TRP45       0.0550
     24  CG        -1.4100   16.1480    0.6870 C.ar   45  TRP45       0.0003
     25  CD1       -2.6350   15.9710    1.2730 C.ar   45  TRP45       0.0946
     26  CD2       -1.5280   17.3060   -0.1460 C.ar   45  TRP45       0.0152
     27  NE1       -3.5070   16.9490    0.8570 N.ar   45  TRP45      -0.2442
     28  CE2       -2.8560   17.7820   -0.0160 C.ar   45  TRP45       0.0810
     29  CE3       -0.6420   17.9910   -0.9900 C.ar   45  TRP45       0.0012
     30  CZ2       -3.3180   18.9110   -0.7010 C.ar   45  TRP45       0.0191
     31  CZ3       -1.1000   19.1140   -1.6710 C.ar   45  TRP45       0.0001
     32  CH2       -2.4290   19.5620   -1.5220 C.ar   45  TRP45       0.0015
     33  N          3.3380   10.7180    4.6690 N.3    78  PHE78      -0.1241
     34  CA         3.7250   11.3340    5.9330 C.3    78  PHE78       0.1605
     35  C          4.5080   10.3920    6.8440 C.2    78  PHE78       0.2264
     36  O          5.4210   10.8260    7.5520 O.2    78  PHE78      -0.2867
     37  CB         2.4800   11.8390    6.6720 C.3    78  PHE78       0.0534
     38  CG         1.7180   10.7570    7.3900 C.ar   78  PHE78      -0.0203
     39  CD1        1.9230   10.5280    8.7520 C.ar   78  PHE78      -0.0042
     40  CD2        0.8150    9.9470    6.7010 C.ar   78  PHE78      -0.0042
     41  CE1        1.2420    9.5110    9.4190 C.ar   78  PHE78      -0.0003
     42  CE2        0.1270    8.9250    7.3610 C.ar   78  PHE78      -0.0003
     43  CZ         0.3410    8.7080    8.7210 C.ar   78  PHE78      -0.0000
     44  N          2.9350   21.7300   -3.8190 N.3    94  GLN94      -0.1245
     45  CA         3.1140   22.8920   -2.9530 C.3    94  GLN94       0.1566
     46  C          4.4200   22.7660   -2.1810 C.2    94  GLN94       0.2260
     47  O          5.0600   21.7130   -2.1750 O.2    94  GLN94      -0.2867
     48  CB         1.9990   22.9780   -1.9080 C.3    94  GLN94       0.0367
     49  CG         0.5780   22.8770   -2.4120 C.3    94  GLN94       0.0905
     50  CD        -0.4190   22.8310   -1.2610 C.2    94  GLN94       0.2608
     51  OE1       -1.6300   22.7480   -1.4710 O.2    94  GLN94      -0.2717
     52  NE2        0.0930   22.8850   -0.0350 N.am   94  GLN94      -0.0878
     53  N          5.8350   23.5150    1.7190 N.3    96  GLY96      -0.1210
     54  CA         5.3160   23.8180    3.0360 C.3    96  GLY96       0.1956
     55  C          6.3000   23.6660    4.1720 C.2    96  GLY96       0.2612
     56  O          7.3530   23.0430    4.0280 O.2    96  GLY96      -0.2717
     57  N          5.9390   24.2610    5.3040 N.am   97  LEU97      -0.1965
     58  CA         6.7380   24.2140    6.5210 C.3    97  LEU97       0.1728
     59  C          5.8990   23.4220    7.5180 C.2    97  LEU97       0.2616
     60  O          4.7170   23.7030    7.7020 O.2    97  LEU97      -0.2715
     61  CB         6.9770   25.6280    7.0660 C.3    97  LEU97       0.0311
     62  CG         7.8260   26.5950    6.2260 C.3    97  LEU97       0.0022
     63  CD1        7.6900   28.0250    6.7470 C.3    97  LEU97       0.0001
     64  CD2        9.2750   26.1530    6.2660 C.3    97  LEU97       0.0001
     65  N          6.5020   22.4330    8.1620 N.am   98  SER98      -0.1950
     66  CA         5.7790   21.6410    9.1460 C.3    98  SER98       0.1924
     67  C          6.7320   21.2080   10.2500 C.2    98  SER98       0.2314
     68  O          7.8360   20.7400    9.9700 O.2    98  SER98      -0.2863
     69  CB         5.1360   20.4190    8.4800 C.3    98  SER98       0.2116
     70  OG         6.0960   19.6320    7.8050 O.3    98  SER98      -0.2180
     71  N          5.3150   17.7860   14.8510 N.3   101  ALA101     -0.1231
     72  CA         3.9810   17.2490   15.1270 C.3   101  ALA101      0.1694
     73  C          3.0530   17.4030   13.9260 C.2   101  ALA101      0.2592
     74  O          1.8740   17.0570   13.9960 O.2   101  ALA101     -0.2718
     75  CB         3.3730   17.9470   16.3450 C.3   101  ALA101      0.0304
     76  N          3.5910   17.9240   12.8300 N.am  102  GLY102     -0.1957
     77  CA         2.7940   18.1200   11.6320 C.3   102  GLY102      0.1869
     78  C          2.0760   19.4580   11.5740 C.2   102  GLY102      0.2309
     79  O          1.2890   19.7030   10.6590 O.2   102  GLY102     -0.2863
     80  N          1.7840   26.5160    8.9510 N.3   105  PRO105     -0.2102
     81  CA         0.8600   27.2670    8.0980 C.3   105  PRO105      0.1504
     82  C          0.5100   26.5500    6.8000 C.2   105  PRO105      0.2576
     83  O          1.0690   25.5020    6.4760 O.2   105  PRO105     -0.2718
     84  CB         1.6110   28.5690    7.8480 C.3   105  PRO105      0.0282
     85  CG         3.0350   28.1160    7.8060 C.3   105  PRO105      0.0208
     86  CD         3.1030   27.1710    8.9930 C.3   105  PRO105      0.0893
     87  N         -0.4250   27.1290    6.0620 N.am  106  GLU106     -0.1966
     88  CA        -0.8550   26.5620    4.7920 C.3   106  GLU106      0.1733
     89  C          0.3180   26.5530    3.8110 C.2   106  GLU106      0.2616
     90  O          1.1320   27.4750    3.7970 O.2   106  GLU106     -0.2715
     91  CB        -2.0090   27.3990    4.2330 C.3   106  GLU106      0.0429
     92  CG        -2.5760   26.9090    2.9160 C.3   106  GLU106      0.1163
     93  CD        -3.7010   27.7960    2.4160 C.2   106  GLU106      0.3649
     94  OE1       -4.7330   27.8980    3.1150 O.co2 106  GLU106     -0.2457
     95  OE2       -3.5510   28.3960    1.3290 O.co2 106  GLU106     -0.2457
     96  N          0.4100   25.5030    3.0020 N.am  107  GLY107     -0.1955
     97  CA         1.4800   25.4210    2.0230 C.3   107  GLY107      0.1869
     98  C          1.2060   26.3610    0.8610 C.2   107  GLY107      0.2309
     99  O          0.0850   26.8510    0.7020 O.2   107  GLY107     -0.2863
@<TRIPOS>BOND
     1    44    45    1
     2     4     3    2
     3    45    46    1
     4    45    48    1
     5     3     2    1
     6    49    48    1
     7    49    50    1
     8    46    47    2
     9    31    32   ar
    10    31    29   ar
    11    32    30   ar
    12    51    50    2
    13     1     2    1
    14     2     5    1
    15    50    52   am
    16    29    26   ar
    17    30    28   ar
    18    15    16    1
    19     5     6    1
    20    26    28   ar
    21    26    24   ar
    22    28    27   ar
    23    20    21    1
    24    20    19    1
    25    20    23    1
    26    21    22    2
    27    24    23    1
    28    24    25   ar
    29    99    98    2
    30    27    25   ar
    31    98    97    1
    32    16    17    1
    33     6     7   ar
    34     6     8   ar
    35    95    93   ar
    36    17    18    2
    37    53    54    1
    38     7     9   ar
    39    11     8   ar
    40    11    13   ar
    41    97    96    1
    42     8    10   ar
    43    93    92    1
    44    93    94   ar
    45    92    91    1
    46    96    89   am
    47     9    10   ar
    48    13    14   ar
    49    54    55    1
    50    10    12   ar
    51    90    89    2
    52    89    88    1
    53    56    55    2
    54    14    12   ar
    55    55    57   am
    56    91    88    1
    57    33    34    1
    58    88    87    1
    59    57    58    1
    60    34    37    1
    61    34    35    1
    62    87    82   am
    63    62    64    1
    64    62    63    1
    65    62    61    1
    66    83    82    2
    67    58    61    1
    68    58    59    1
    69    37    38    1
    70    40    42   ar
    71    40    38   ar
    72    82    81    1
    73    35    36    2
    74    42    43   ar
    75    38    39   ar
    76    59    60    2
    77    59    65   am
    78    70    69    1
    79    85    84    1
    80    85    86    1
    81    84    81    1
    82    81    80    1
    83    65    66    1
    84    69    66    1
    85    43    41   ar
    86    39    41   ar
    87    80    86    1
    88    66    67    1
    89    68    67    2
    90    79    78    2
    91    78    77    1
    92    77    76    1
    93    76    73   am
    94    73    74    2
    95    73    72    1
    96    71    72    1
    97    72    75    1
