@<TRIPOS>MOLECULE
tmp/2cboA00.pdb
 100 99 0 0 0
SMALL
GASTEIGER

@<TRIPOS>ATOM
      1  N         10.4450   21.5990    9.1970 N.3    33  TRP33      -0.1241
      2  CA        10.9430   20.9270    8.0060 C.3    33  TRP33       0.1605
      3  C         10.3930   21.7310    6.8310 C.2    33  TRP33       0.2264
      4  O          9.2770   22.2540    6.9000 O.2    33  TRP33      -0.2867
      5  CB        10.4070   19.4990    7.9210 C.3    33  TRP33       0.0550
      6  CG        11.2830   18.4710    8.5580 C.ar   33  TRP33       0.0003
      7  CD1       12.2990   17.7760    7.9630 C.ar   33  TRP33       0.0946
      8  CD2       11.2450   18.0380    9.9230 C.ar   33  TRP33       0.0152
      9  NE1       12.8930   16.9350    8.8720 N.ar   33  TRP33      -0.2442
     10  CE2       12.2680   17.0750   10.0840 C.ar   33  TRP33       0.0810
     11  CE3       10.4470   18.3730   11.0290 C.ar   33  TRP33       0.0012
     12  CZ2       12.5150   16.4410   11.3050 C.ar   33  TRP33       0.0191
     13  CZ3       10.6950   17.7410   12.2490 C.ar   33  TRP33       0.0001
     14  CH2       11.7220   16.7860   12.3730 C.ar   33  TRP33       0.0015
     15  N          9.6120   21.2870    2.8300 N.3    35  ALA35      -0.1245
     16  CA         9.5240   20.2480    1.8110 C.3    35  ALA35       0.1562
     17  C          8.4970   20.5160    0.7310 C.2    35  ALA35       0.2260
     18  O          7.5670   21.3060    0.9100 O.2    35  ALA35      -0.2867
     19  CB         9.2210   18.8950    2.4710 C.3    35  ALA35       0.0290
     20  N          5.4600   19.1840   -1.4690 N.3    37  TRP37      -0.1241
     21  CA         4.3520   18.2380   -1.3400 C.3    37  TRP37       0.1605
     22  C          3.4960   18.1640   -2.6000 C.2    37  TRP37       0.2264
     23  O          3.5160   19.0640   -3.4390 O.2    37  TRP37      -0.2867
     24  CB         3.4380   18.6270   -0.1760 C.3    37  TRP37       0.0550
     25  CG         4.0550   18.4950    1.1650 C.ar   37  TRP37       0.0003
     26  CD1        4.8470   19.4060    1.7990 C.ar   37  TRP37       0.0946
     27  CD2        3.9520   17.3690    2.0400 C.ar   37  TRP37       0.0152
     28  NE1        5.2470   18.9180    3.0170 N.ar   37  TRP37      -0.2442
     29  CE2        4.7130   17.6670    3.1910 C.ar   37  TRP37       0.0810
     30  CE3        3.2910   16.1330    1.9640 C.ar   37  TRP37       0.0012
     31  CZ2        4.8350   16.7720    4.2610 C.ar   37  TRP37       0.0191
     32  CZ3        3.4130   15.2420    3.0280 C.ar   37  TRP37       0.0001
     33  CH2        4.1800   15.5680    4.1600 C.ar   37  TRP37       0.0015
     34  N          5.5310   13.7190   -0.1210 N.3    47  TYR47      -0.1241
     35  CA         6.5750   14.7300   -0.2260 C.3    47  TYR47       0.1605
     36  C          7.8750   14.1790   -0.7910 C.2    47  TYR47       0.2264
     37  O          8.0250   12.9730   -1.0050 O.2    47  TYR47      -0.2867
     38  CB         6.8390   15.3770    1.1400 C.3    47  TYR47       0.0534
     39  CG         7.5530   14.4900    2.1320 C.ar   47  TYR47      -0.0201
     40  CD1        8.8490   14.7860    2.5410 C.ar   47  TYR47      -0.0009
     41  CD2        6.9300   13.3580    2.6720 C.ar   47  TYR47      -0.0009
     42  CE1        9.5150   13.9840    3.4670 C.ar   47  TYR47       0.0417
     43  CE2        7.5910   12.5440    3.5990 C.ar   47  TYR47       0.0417
     44  CZ         8.8820   12.8680    3.9910 C.ar   47  TYR47       0.1957
     45  OH         9.5490   12.0960    4.9150 O.3    47  TYR47      -0.2866
     46  N         14.5200   17.7630    0.9340 N.3    52  ASN52      -0.1240
     47  CA        13.9530   18.4860    2.0620 C.3    52  ASN52       0.1653
     48  C         15.0310   19.2480    2.8140 C.2    52  ASN52       0.2266
     49  O         16.2270   19.0970    2.5480 O.2    52  ASN52      -0.2867
     50  CB        13.1780   17.5390    3.0120 C.3    52  ASN52       0.1155
     51  CG        14.0670   16.8200    4.0270 C.2    52  ASN52       0.2627
     52  OD1       15.2930   16.8750    3.9700 O.2    52  ASN52      -0.2716
     53  ND2       13.4280   16.1320    4.9690 N.am   52  ASN52      -0.0877
     54  N          3.3380   10.7180    4.6690 N.3    78  PHE78      -0.1227
     55  CA         3.7250   11.3340    5.9330 C.3    78  PHE78       0.1736
     56  C          4.5080   10.3920    6.8440 C.2    78  PHE78       0.2595
     57  O          5.4210   10.8260    7.5520 O.2    78  PHE78      -0.2718
     58  CB         2.4800   11.8390    6.6720 C.3    78  PHE78       0.0547
     59  CG         1.7180   10.7570    7.3900 C.ar   78  PHE78      -0.0202
     60  CD1        1.9230   10.5280    8.7520 C.ar   78  PHE78      -0.0042
     61  CD2        0.8150    9.9470    6.7010 C.ar   78  PHE78      -0.0042
     62  CE1        1.2420    9.5110    9.4190 C.ar   78  PHE78      -0.0003
     63  CE2        0.1270    8.9250    7.3610 C.ar   78  PHE78      -0.0003
     64  CZ         0.3410    8.7080    8.7210 C.ar   78  PHE78      -0.0000
     65  N          4.1560    9.1090    6.8270 N.am   79  ASP79      -0.1974
     66  CA         4.8310    8.1400    7.6780 C.3    79  ASP79       0.1709
     67  C          6.0860    7.5240    7.0600 C.2    79  ASP79       0.2293
     68  O          6.6500    6.5770    7.6090 O.2    79  ASP79      -0.2864
     69  CB         3.8620    7.0270    8.0930 C.3    79  ASP79       0.1436
     70  CG         3.2280    6.3230    6.9080 C.2    79  ASP79       0.3671
     71  OD1        3.7830    6.3830    5.7880 O.co2  79  ASP79      -0.2456
     72  OD2        2.1730    5.6890    7.1020 O.co2  79  ASP79      -0.2456
     73  N          6.5020   22.4330    8.1620 N.3    98  SER98      -0.1202
     74  CA         5.7790   21.6410    9.1460 C.3    98  SER98       0.2020
     75  C          6.7320   21.2080   10.2500 C.2    98  SER98       0.2619
     76  O          7.8360   20.7400    9.9700 O.2    98  SER98      -0.2717
     77  CB         5.1360   20.4190    8.4800 C.3    98  SER98       0.2103
     78  OG         6.0960   19.6320    7.8050 O.3    98  SER98      -0.2182
     79  N          6.3050   21.3740   11.5010 N.am   99  ASP99      -0.1959
     80  CA         7.1380   21.0100   12.6430 C.3    99  ASP99       0.1840
     81  C          7.0330   19.5090   12.9000 C.2    99  ASP99       0.2622
     82  O          6.3820   18.7890   12.1370 O.2    99  ASP99      -0.2715
     83  CB         6.7770   21.8150   13.9130 C.3    99  ASP99       0.1450
     84  CG         5.3530   21.5680   14.4090 C.2    99  ASP99       0.3671
     85  OD1        4.8450   20.4340   14.2850 O.co2  99  ASP99      -0.2456
     86  OD2        4.7470   22.5190   14.9530 O.co2  99  ASP99      -0.2456
     87  N          7.6740   19.0410   13.9680 N.am  100  ALA100     -0.1963
     88  CA         7.6900   17.6190   14.2970 C.3   100  ALA100      0.1728
     89  C          6.3350   16.9770   14.5780 C.2   100  ALA100      0.2616
     90  O          6.2220   15.7540   14.5500 O.2   100  ALA100     -0.2715
     91  CB         8.6340   17.3700   15.4760 C.3   100  ALA100      0.0334
     92  N          5.3150   17.7860   14.8510 N.am  101  ALA101     -0.1963
     93  CA         3.9810   17.2490   15.1270 C.3   101  ALA101      0.1728
     94  C          3.0530   17.4030   13.9260 C.2   101  ALA101      0.2616
     95  O          1.8740   17.0570   13.9960 O.2   101  ALA101     -0.2715
     96  CB         3.3730   17.9470   16.3450 C.3   101  ALA101      0.0334
     97  N          3.5910   17.9240   12.8300 N.am  102  GLY102     -0.1955
     98  CA         2.7940   18.1200   11.6320 C.3   102  GLY102      0.1869
     99  C          2.0760   19.4580   11.5740 C.2   102  GLY102      0.2309
    100  O          1.2890   19.7030   10.6590 O.2   102  GLY102     -0.2863
@<TRIPOS>BOND
     1    23    22    2
     2    22    21    1
     3    20    21    1
     4    21    24    1
     5    37    36    2
     6    36    35    1
     7    35    34    1
     8    35    38    1
     9    24    25    1
    10    17    18    2
    11    17    16    1
    12    46    47    1
    13    38    39    1
    14    25    26   ar
    15    25    27   ar
    16    26    28   ar
    17    16    19    1
    18    16    15    1
    19    30    27   ar
    20    30    32   ar
    21    27    29   ar
    22    47    48    1
    23    47    50    1
    24    39    40   ar
    25    39    41   ar
    26    40    42   ar
    27    49    48    2
    28    41    43   ar
    29    50    51    1
    30    28    29   ar
    31    32    33   ar
    32    29    31   ar
    33    42    44   ar
    34    43    44   ar
    35    52    51    2
    36    44    45    1
    37    51    53   am
    38    33    31   ar
    39    54    55    1
    40    71    70   ar
    41    55    58    1
    42    55    56    1
    43    58    59    1
    44    61    63   ar
    45    61    59   ar
    46    65    56   am
    47    65    66    1
    48     3     4    2
    49     3     2    1
    50    56    57    2
    51    70    72   ar
    52    70    69    1
    53    67    68    2
    54    67    66    1
    55    63    64   ar
    56    59    60   ar
    57    66    69    1
    58    78    77    1
    59     5     2    1
    60     5     6    1
    61     7     6   ar
    62     7     9   ar
    63     2     1    1
    64    73    74    1
    65    77    74    1
    66     6     8   ar
    67    64    62   ar
    68    60    62   ar
    69     9    10   ar
    70    74    75    1
    71     8    10   ar
    72     8    11   ar
    73    76    75    2
    74    10    12   ar
    75    75    79   am
    76   100    99    2
    77    11    13   ar
    78    12    14   ar
    79    79    80    1
    80    99    98    1
    81    98    97    1
    82    82    81    2
    83    13    14   ar
    84    80    81    1
    85    80    83    1
    86    97    94   am
    87    81    87   am
    88    83    84    1
    89    94    95    2
    90    94    93    1
    91    87    88    1
    92    85    84   ar
    93    88    89    1
    94    88    91    1
    95    84    86   ar
    96    90    89    2
    97    89    92   am
    98    92    93    1
    99    93    96    1
