@<TRIPOS>MOLECULE
tmp/2cbqB01.pdb
 80 78 0 0 0
SMALL
GASTEIGER

@<TRIPOS>ATOM
      1  N          6.7560   65.3450    7.7840 N.3    38  ALA38      -0.1231
      2  CA         8.1530   65.3020    8.1780 C.3    38  ALA38       0.1694
      3  C          8.3380   64.0870    9.0860 C.2    38  ALA38       0.2592
      4  O          7.6480   63.9500   10.0990 O.2    38  ALA38      -0.2718
      5  CB         8.5220   66.5750    8.9150 C.3    38  ALA38       0.0304
      6  N          9.2460   63.1930    8.7020 N.am   39  VAL39      -0.1966
      7  CA         9.5210   61.9990    9.4930 C.3    39  VAL39       0.1727
      8  C         10.9340   62.1070   10.0520 C.2    39  VAL39       0.2616
      9  O         11.4940   61.1470   10.5670 O.2    39  VAL39      -0.2715
     10  CB         9.3770   60.6970    8.6510 C.3    39  VAL39       0.0290
     11  CG1        7.9160   60.4710    8.2880 C.3    39  VAL39       0.0023
     12  CG2       10.2290   60.7840    7.3910 C.3    39  VAL39       0.0023
     13  N         11.4980   63.3010    9.9330 N.am   40  ASP40      -0.1957
     14  CA        12.8290   63.5970   10.4360 C.3    40  ASP40       0.1840
     15  C         13.2170   64.9800    9.9360 C.2    40  ASP40       0.2622
     16  O         12.7230   65.4310    8.9040 O.2    40  ASP40      -0.2715
     17  CB        13.8530   62.5740    9.9420 C.3    40  ASP40       0.1450
     18  CG        15.0050   62.3800   10.9260 C.2    40  ASP40       0.3671
     19  OD1       15.5150   63.3840   11.4750 O.co2  40  ASP40      -0.2456
     20  OD2       15.4040   61.2180   11.1500 O.co2  40  ASP40      -0.2456
     21  N         14.0980   65.6480   10.6720 N.am   41  THR41      -0.1951
     22  CA        14.5610   66.9790   10.3030 C.3    41  THR41       0.1897
     23  C         14.9230   67.0310    8.8200 C.2    41  THR41       0.2313
     24  O         15.8850   66.3920    8.3830 O.2    41  THR41      -0.2863
     25  CB        15.8030   67.3880   11.1350 C.3    41  THR41       0.1794
     26  OG1       15.4800   67.3450   12.5310 O.3    41  THR41      -0.2208
     27  CG2       16.2600   68.8020   10.7630 C.3    41  THR41       0.0378
     28  N          9.0660   54.5660    3.5030 N.3    82  TRP82      -0.1241
     29  CA         9.3290   54.8590    4.9040 C.3    82  TRP82       0.1605
     30  C          8.4630   54.0090    5.8110 C.2    82  TRP82       0.2264
     31  O          8.9510   53.3990    6.7570 O.2    82  TRP82      -0.2867
     32  CB         9.0630   56.3280    5.2140 C.3    82  TRP82       0.0550
     33  CG         9.3850   56.6820    6.6390 C.ar   82  TRP82       0.0003
     34  CD1       10.6210   56.9220    7.1640 C.ar   82  TRP82       0.0946
     35  CD2        8.4570   56.7860    7.7300 C.ar   82  TRP82       0.0152
     36  NE1       10.5230   57.1680    8.5100 N.ar   82  TRP82      -0.2442
     37  CE2        9.2060   57.0920    8.8850 C.ar   82  TRP82       0.0810
     38  CE3        7.0650   56.6470    7.8410 C.ar   82  TRP82       0.0012
     39  CZ2        8.6100   57.2640   10.1450 C.ar   82  TRP82       0.0191
     40  CZ3        6.4710   56.8160    9.0950 C.ar   82  TRP82       0.0001
     41  CH2        7.2470   57.1220   10.2280 C.ar   82  TRP82       0.0015
     42  N          3.9280   53.4740    7.0650 N.3    84  THR84      -0.1203
     43  CA         2.6640   54.1870    7.1780 C.3    84  THR84       0.1994
     44  C          2.7900   55.4490    8.0210 C.2    84  THR84       0.2618
     45  O          3.3410   55.4200    9.1150 O.2    84  THR84      -0.2717
     46  CB         1.5720   53.3300    7.8360 C.3    84  THR84       0.1784
     47  OG1        1.5310   52.0440    7.2180 O.3    84  THR84      -0.2211
     48  CG2        0.2130   54.0020    7.6740 C.3    84  THR84       0.0376
     49  N          2.2590   56.5510    7.5060 N.am   85  VAL85      -0.1965
     50  CA         2.2660   57.8120    8.2320 C.3    85  VAL85       0.1727
     51  C          0.8610   58.0910    8.7870 C.2    85  VAL85       0.2616
     52  O         -0.1390   57.9760    8.0740 O.2    85  VAL85      -0.2715
     53  CB         2.6870   58.9890    7.3220 C.3    85  VAL85       0.0290
     54  CG1        2.6350   60.3040    8.1120 C.3    85  VAL85       0.0023
     55  CG2        4.0890   58.7420    6.7730 C.3    85  VAL85       0.0023
     56  N          0.7930   58.4420   10.0680 N.am   86  ASP86      -0.1971
     57  CA        -0.4750   58.7500   10.7190 C.3    86  ASP86       0.1709
     58  C         -0.5490   60.2490   11.0070 C.2    86  ASP86       0.2293
     59  O          0.0650   60.7440   11.9570 O.2    86  ASP86      -0.2864
     60  CB        -0.6100   57.9500   12.0130 C.3    86  ASP86       0.1436
     61  CG        -1.9110   58.2290   12.7380 C.2    86  ASP86       0.3671
     62  OD1       -2.8970   58.6260   12.0730 O.co2  86  ASP86      -0.2456
     63  OD2       -1.9450   58.0410   13.9750 O.co2  86  ASP86      -0.2456
     64  N         -1.0810   62.4000   14.5400 N.3    89  THR89      -0.1203
     65  CA        -0.0940   63.0080   15.4320 C.3    89  THR89       0.1994
     66  C          1.1100   63.4910   14.6410 C.2    89  THR89       0.2618
     67  O          1.9980   64.1300   15.1900 O.2    89  THR89      -0.2717
     68  CB         0.4100   62.0170   16.5280 C.3    89  THR89       0.1784
     69  OG1        1.2400   61.0120   15.9350 O.3    89  THR89      -0.2211
     70  CG2       -0.7630   61.3440   17.2330 C.3    89  THR89       0.0376
     71  N          1.1430   63.1840   13.3510 N.am   90  ALA90      -0.1965
     72  CA         2.2550   63.5990   12.5080 C.3    90  ALA90       0.1728
     73  C          1.9790   64.9480   11.8410 C.2    90  ALA90       0.2616
     74  O          0.8700   65.2110   11.3820 O.2    90  ALA90      -0.2715
     75  CB         2.5310   62.5380   11.4470 C.3    90  ALA90       0.0334
     76  N          3.0010   65.7990   11.7950 N.am   91  ALA91      -0.1977
     77  CA         2.8810   67.1150   11.1740 C.3    91  ALA91       0.1597
     78  C          2.7200   66.9620    9.6650 C.2    91  ALA91       0.2287
     79  O          3.6890   67.0890    8.9200 O.2    91  ALA91      -0.2864
     80  CB         4.1230   67.9580   11.4800 C.3    91  ALA91       0.0319
@<TRIPOS>BOND
     1    28    29    1
     2    29    32    1
     3    29    30    1
     4    32    33    1
     5    30    31    2
     6    33    34   ar
     7    33    35   ar
     8    55    53    1
     9    42    43    1
    10    34    36   ar
    11    43    46    1
    12    43    44    1
    13    47    46    1
    14    53    54    1
    15    53    50    1
    16    12    10    1
    17    49    44   am
    18    49    50    1
    19    48    46    1
    20    35    38   ar
    21    35    37   ar
    22     1     2    1
    23    38    40   ar
    24    44    45    2
    25    52    51    2
    26     2     5    1
    27     2     3    1
    28    50    51    1
    29    11    10    1
    30    24    23    2
    31    36    37   ar
    32    10     7    1
    33     6     3   am
    34     6     7    1
    35    51    56   am
    36    23    22    1
    37    37    39   ar
    38    16    15    2
    39    79    78    2
    40     3     4    2
    41    40    41   ar
    42     7     8    1
    43    78    77    1
    44    13     8   am
    45    13    14    1
    46    15    14    1
    47    15    21   am
    48    17    14    1
    49    17    18    1
    50     8     9    2
    51    56    57    1
    52    39    41   ar
    53    22    21    1
    54    22    25    1
    55    57    58    1
    56    57    60    1
    57    27    25    1
    58    18    20   ar
    59    18    19   ar
    60    58    59    2
    61    25    26    1
    62    77    80    1
    63    77    76    1
    64    74    73    2
    65    75    72    1
    66    76    73   am
    67    73    72    1
    68    60    61    1
    69    62    61   ar
    70    72    71    1
    71    61    63   ar
    72    71    66   am
    73    64    65    1
    74    66    67    2
    75    66    65    1
    76    65    68    1
    77    69    68    1
    78    68    70    1
