@<TRIPOS>MOLECULE
tmp/2cbrA00.pdb
 174 161 0 0 0
SMALL
GASTEIGER

@<TRIPOS>ATOM
      1  N         26.6180   85.4950   17.6460 N.3    15  PHE15      -0.1241
      2  CA        26.8340   84.8600   16.3590 C.3    15  PHE15       0.1605
      3  C         27.6630   85.7900   15.4740 C.2    15  PHE15       0.2264
      4  O         28.5210   85.3380   14.7110 O.2    15  PHE15      -0.2867
      5  CB        25.5140   84.5320   15.6650 C.3    15  PHE15       0.0534
      6  CG        25.6910   83.7150   14.4220 C.ar   15  PHE15      -0.0203
      7  CD1       26.2840   82.4610   14.4890 C.ar   15  PHE15      -0.0042
      8  CD2       25.3010   84.2040   13.1820 C.ar   15  PHE15      -0.0042
      9  CE1       26.4890   81.7040   13.3430 C.ar   15  PHE15      -0.0003
     10  CE2       25.5020   83.4510   12.0270 C.ar   15  PHE15      -0.0003
     11  CZ        26.0970   82.1970   12.1090 C.ar   15  PHE15      -0.0000
     12  N         31.4730   85.2450   13.8250 N.3    19  LEU19      -0.1245
     13  CA        31.8380   85.4640   12.4290 C.3    19  LEU19       0.1561
     14  C         32.9780   86.4830   12.3080 C.2    19  LEU19       0.2260
     15  O         33.7650   86.4180   11.3670 O.2    19  LEU19      -0.2867
     16  CB        30.6190   85.9210   11.6220 C.3    19  LEU19       0.0270
     17  CG        29.4720   84.9160   11.5320 C.3    19  LEU19       0.0019
     18  CD1       28.3240   85.5500   10.7720 C.3    19  LEU19       0.0001
     19  CD2       29.9420   83.6430   10.8410 C.3    19  LEU19       0.0001
     20  N         35.0380   86.9210    8.7180 N.3    24  VAL24      -0.1245
     21  CA        34.0750   87.0020    7.6270 C.3    24  VAL24       0.1561
     22  C         33.7650   88.4550    7.2720 C.2    24  VAL24       0.2260
     23  O         33.6210   89.3070    8.1520 O.2    24  VAL24      -0.2867
     24  CB        32.7640   86.2760    7.9830 C.3    24  VAL24       0.0252
     25  CG1       31.7920   86.3310    6.8130 C.3    24  VAL24       0.0019
     26  CG2       33.0680   84.8400    8.3460 C.3    24  VAL24       0.0019
     27  N         29.0750   89.8610    4.3270 N.3    28  LEU28      -0.1245
     28  CA        28.6680   88.4650    4.3750 C.3    28  LEU28       0.1561
     29  C         27.9920   88.2080    5.7220 C.2    28  LEU28       0.2260
     30  O         26.9530   87.5480    5.7910 O.2    28  LEU28      -0.2867
     31  CB        29.8770   87.5470    4.1860 C.3    28  LEU28       0.0270
     32  CG        30.4410   87.4800    2.7650 C.3    28  LEU28       0.0019
     33  CD1       31.6700   86.5910    2.7600 C.3    28  LEU28       0.0001
     34  CD2       29.3760   86.9410    1.8090 C.3    28  LEU28       0.0001
     35  N         24.5110   89.1970    5.7970 N.3    31  VAL31      -0.1231
     36  CA        23.6650   88.1780    5.1680 C.3    31  VAL31       0.1692
     37  C         23.4890   86.9710    6.0920 C.2    31  VAL31       0.2591
     38  O         22.3700   86.5080    6.3330 O.2    31  VAL31      -0.2718
     39  CB        24.2910   87.6840    3.8460 C.3    31  VAL31       0.0266
     40  CG1       23.3280   86.7630    3.1190 C.3    31  VAL31       0.0020
     41  CG2       24.6630   88.8590    2.9820 C.3    31  VAL31       0.0020
     42  N         24.6120   86.4680    6.6010 N.am   32  ALA32      -0.1980
     43  CA        24.6210   85.3130    7.4960 C.3    32  ALA32       0.1597
     44  C         23.7710   85.5450    8.7420 C.2    32  ALA32       0.2287
     45  O         22.8470   84.7790    9.0300 O.2    32  ALA32      -0.2864
     46  CB        26.0530   84.9850    7.8940 C.3    32  ALA32       0.0319
     47  N         20.1630   85.4370    7.8350 N.3    35  ALA35      -0.1231
     48  CA        19.6710   84.0890    7.5790 C.3    35  ALA35       0.1694
     49  C         19.6240   83.2470    8.8440 C.2    35  ALA35       0.2591
     50  O         18.6480   82.5330    9.0880 O.2    35  ALA35      -0.2718
     51  CB        20.5420   83.4070    6.5380 C.3    35  ALA35       0.0304
     52  N         20.6780   83.3460    9.6500 N.am   36  ALA36      -0.1980
     53  CA        20.7850   82.5700   10.8790 C.3    36  ALA36       0.1597
     54  C         19.7060   82.8640   11.9200 C.2    36  ALA36       0.2287
     55  O         19.5270   82.0880   12.8500 O.2    36  ALA36      -0.2864
     56  CB        22.1760   82.7560   11.4860 C.3    36  ALA36       0.0319
     57  N         16.5660   79.9000   11.5230 N.3    39  PRO39      -0.2116
     58  CA        17.0360   78.5990   11.0390 C.3    39  PRO39       0.1372
     59  C         16.0670   77.4700   11.3880 C.2    39  PRO39       0.2244
     60  O         15.3980   77.5150   12.4220 O.2    39  PRO39      -0.2868
     61  CB        18.3530   78.4470   11.7750 C.3    39  PRO39       0.0268
     62  CG        17.9400   78.9180   13.1550 C.3    39  PRO39       0.0207
     63  CD        17.2270   80.2320   12.8000 C.3    39  PRO39       0.0892
     64  N         15.9220   73.3830   12.0750 N.3    41  VAL41      -0.1245
     65  CA        16.8240   72.2730   12.3290 C.3    41  VAL41       0.1561
     66  C         16.1540   70.9190   12.4370 C.2    41  VAL41       0.2260
     67  O         15.2380   70.7270   13.2360 O.2    41  VAL41      -0.2867
     68  CB        17.6590   72.5190   13.6140 C.3    41  VAL41       0.0252
     69  CG1       18.5480   71.3150   13.8940 C.3    41  VAL41       0.0019
     70  CG2       18.5220   73.7730   13.4380 C.3    41  VAL41       0.0019
     71  N         20.4940   71.6910    8.8380 N.3    54  THR54      -0.1218
     72  CA        20.2660   73.0490    9.2910 C.3    54  THR54       0.1862
     73  C         19.9390   73.8950    8.0690 C.2    54  THR54       0.2287
     74  O         20.7700   74.0570    7.1630 O.2    54  THR54      -0.2866
     75  CB        21.5190   73.5890   10.0110 C.3    54  THR54       0.1770
     76  OG1       21.7760   72.7730   11.1600 O.3    54  THR54      -0.2211
     77  CG2       21.3210   75.0330   10.4490 C.3    54  THR54       0.0375
     78  N         18.3910   77.5230    6.2070 N.3    56  THR56      -0.1218
     79  CA        18.1130   78.9500    6.2150 C.3    56  THR56       0.1862
     80  C         17.7970   79.1930    4.7530 C.2    56  THR56       0.2287
     81  O         17.8490   78.2620    3.9430 O.2    56  THR56      -0.2866
     82  CB        19.3300   79.8110    6.5810 C.3    56  THR56       0.1770
     83  OG1       20.3130   79.7080    5.5440 O.3    56  THR56      -0.2211
     84  CG2       19.9230   79.3740    7.9090 C.3    56  THR56       0.0375
     85  N         19.5030   81.2110    2.5640 N.3    58  VAL58      -0.1231
     86  CA        20.7070   81.3060    1.7430 C.3    58  VAL58       0.1692
     87  C         21.7150   80.1630    1.8340 C.2    58  VAL58       0.2591
     88  O         22.6650   80.1160    1.0460 O.2    58  VAL58      -0.2718
     89  CB        21.4480   82.6070    2.0840 C.3    58  VAL58       0.0266
     90  CG1       20.5170   83.7950    1.9340 C.3    58  VAL58       0.0020
     91  CG2       21.9740   82.5340    3.4880 C.3    58  VAL58       0.0020
     92  N         21.5210   79.2470    2.7820 N.am   59  ARG59      -0.1980
     93  CA        22.4720   78.1440    2.9650 C.3    59  ARG59       0.1597
     94  C         21.8950   77.0260    3.8260 C.2    59  ARG59       0.2287
     95  O         21.2840   77.2840    4.8590 O.2    59  ARG59      -0.2864
     96  CB        23.7540   78.6870    3.6240 C.3    59  ARG59       0.0334
     97  CG        24.7830   77.6630    4.1010 C.3    59  ARG59       0.0492
     98  CD        25.9910   78.4310    4.7190 C.3    59  ARG59       0.2205
     99  NE        26.9660   77.5770    5.4110 N.pl3  59  ARG59      -0.0865
    100  CZ        27.7850   76.6960    4.8200 C.cat  59  ARG59       0.5346
    101  NH1       27.7650   76.5380    3.4980 N.pl3  59  ARG59       0.1354
    102  NH2       28.6080   75.9480    5.5540 N.pl3  59  ARG59       0.1354
    103  N         31.8550   77.1380   10.5840 N.3    76  VAL76      -0.1231
    104  CA        30.7500   78.0870   10.5280 C.3    76  VAL76       0.1692
    105  C         30.9190   79.0470    9.3550 C.2    76  VAL76       0.2592
    106  O         29.9350   79.4760    8.7520 O.2    76  VAL76      -0.2718
    107  CB        30.6310   78.8950   11.8420 C.3    76  VAL76       0.0266
    108  CG1       29.4590   79.8360   11.7600 C.3    76  VAL76       0.0020
    109  CG2       30.4390   77.9610   13.0130 C.3    76  VAL76       0.0020
    110  N         32.1710   79.3730    9.0370 N.am   77  ASP77      -0.1960
    111  CA        32.4810   80.2730    7.9330 C.3    77  ASP77       0.1840
    112  C         32.7370   79.5630    6.6040 C.2    77  ASP77       0.2622
    113  O         33.4370   80.0910    5.7440 O.2    77  ASP77      -0.2715
    114  CB        33.6850   81.1620    8.2720 C.3    77  ASP77       0.1450
    115  CG        34.8930   80.3730    8.7430 C.2    77  ASP77       0.3671
    116  OD1       36.0040   80.9410    8.7510 O.co2  77  ASP77      -0.2456
    117  OD2       34.7390   79.1980    9.1300 O.co2  77  ASP77      -0.2456
    118  N         32.1910   78.3610    6.4400 N.am   78  GLY78      -0.1954
    119  CA        32.3470   77.6500    5.1830 C.3    78  GLY78       0.1869
    120  C         33.6130   76.8680    4.8810 C.2    78  GLY78       0.2309
    121  O         33.6250   76.0970    3.9260 O.2    78  GLY78      -0.2863
    122  N         26.9140   70.2620   21.0600 N.3   111  ARG111     -0.1245
    123  CA        25.4700   70.2540   21.1200 C.3   111  ARG111      0.1563
    124  C         25.0930   69.5350   22.4010 C.2   111  ARG111      0.2260
    125  O         25.5620   68.4320   22.6780 O.2   111  ARG111     -0.2867
    126  CB        24.8620   69.5950   19.8720 C.3   111  ARG111      0.0307
    127  CG        24.9100   70.4750   18.6170 C.3   111  ARG111      0.0489
    128  CD        24.0500   69.8850   17.5130 C.3   111  ARG111      0.2205
    129  NE        23.9400   70.7430   16.3270 N.pl3 111  ARG111     -0.0865
    130  CZ        24.9170   70.9590   15.4460 C.cat 111  ARG111      0.5346
    131  NH1       26.1080   70.3830   15.5940 N.pl3 111  ARG111      0.1354
    132  NH2       24.7000   71.7530   14.4070 N.pl3 111  ARG111      0.1354
    133  N         23.2900   74.8500   21.5260 N.3   120  LEU120     -0.1245
    134  CA        24.3590   74.7290   20.5360 C.3   120  LEU120      0.1561
    135  C         25.4270   75.7610   20.8570 C.2   120  LEU120      0.2260
    136  O         25.1100   76.9090   21.1570 O.2   120  LEU120     -0.2867
    137  CB        23.8260   74.9750   19.1170 C.3   120  LEU120      0.0270
    138  CG        24.8520   75.0380   17.9780 C.3   120  LEU120      0.0019
    139  CD1       25.6980   73.7700   17.9280 C.3   120  LEU120      0.0001
    140  CD2       24.1260   75.2430   16.6650 C.3   120  LEU120      0.0001
    141  N         29.2560   77.4130   19.5530 N.3   122  PHE122     -0.1241
    142  CA        30.2940   77.5330   18.5440 C.3   122  PHE122      0.1605
    143  C         31.4520   78.2820   19.1650 C.2   122  PHE122      0.2264
    144  O         31.2740   79.3710   19.7100 O.2   122  PHE122     -0.2867
    145  CB        29.8030   78.3130   17.3300 C.3   122  PHE122      0.0534
    146  CG        28.8530   77.5530   16.4630 C.ar  122  PHE122     -0.0203
    147  CD1       29.2470   76.3640   15.8660 C.ar  122  PHE122     -0.0042
    148  CD2       27.5850   78.0530   16.1940 C.ar  122  PHE122     -0.0042
    149  CE1       28.4030   75.6850   15.0090 C.ar  122  PHE122     -0.0003
    150  CE2       26.7260   77.3740   15.3320 C.ar  122  PHE122     -0.0003
    151  CZ        27.1420   76.1840   14.7360 C.ar  122  PHE122     -0.0000
    152  N         23.6110   79.2070   21.0380 N.3   131  ARG131     -0.1245
    153  CA        22.2990   79.2140   20.3990 C.3   131  ARG131      0.1563
    154  C         21.3850   78.1780   21.0600 C.2   131  ARG131      0.2260
    155  O         21.6990   76.9890   21.0870 O.2   131  ARG131     -0.2867
    156  CB        22.4540   78.9550   18.8980 C.3   131  ARG131      0.0307
    157  CG        23.2070   80.0830   18.2030 C.3   131  ARG131      0.0489
    158  CD        23.7550   79.6800   16.8500 C.3   131  ARG131      0.2205
    159  NE        22.7470   79.5540   15.8060 N.pl3 131  ARG131     -0.0865
    160  CZ        22.1570   80.5780   15.1970 C.cat 131  ARG131      0.5346
    161  NH1       22.4670   81.8270   15.5260 N.pl3 131  ARG131      0.1354
    162  NH2       21.2660   80.3490   14.2430 N.pl3 131  ARG131      0.1354
    163  N         17.8480   76.0720   21.2840 N.3   133  TYR133     -0.1241
    164  CA        16.7560   75.6210   20.4300 C.3   133  TYR133      0.1605
    165  C         15.6960   74.9090   21.2440 C.2   133  TYR133      0.2264
    166  O         15.9860   74.3150   22.2790 O.2   133  TYR133     -0.2867
    167  CB        17.2400   74.6660   19.3350 C.3   133  TYR133      0.0534
    168  CG        18.0490   75.2980   18.2310 C.ar  133  TYR133     -0.0201
    169  CD1       19.3970   75.6410   18.4150 C.ar  133  TYR133     -0.0009
    170  CD2       17.4730   75.5200   16.9810 C.ar  133  TYR133     -0.0009
    171  CE1       20.1470   76.1810   17.3640 C.ar  133  TYR133      0.0417
    172  CE2       18.1990   76.0520   15.9390 C.ar  133  TYR133      0.0417
    173  CZ        19.5290   76.3740   16.1300 C.ar  133  TYR133      0.1957
    174  OH        20.2300   76.8600   15.0570 O.3   133  TYR133     -0.2866
@<TRIPOS>BOND
     1    88    87    2
     2    86    87    1
     3    86    89    1
     4    86    85    1
     5    34    32    1
     6    87    92   am
     7    90    89    1
     8    89    91    1
     9    33    32    1
    10    32    31    1
    11    92    93    1
    12    93    96    1
    13    93    94    1
    14    41    39    1
    15    40    39    1
    16   101   100    1
    17    96    97    1
    18    94    95    2
    19    39    36    1
    20   121   120    2
    21    81    80    2
    22    97    98    1
    23    31    28    1
    24    27    28    1
    25    28    29    1
    26    98    99    1
    27    80    79    1
    28   100    99    2
    29   100   102    1
    30   120   119    1
    31    36    35    1
    32    36    37    1
    33   119   118    1
    34    83    82    1
    35    29    30    2
    36   113   112    2
    37    37    38    2
    38    37    42   am
    39    78    79    1
    40    79    82    1
    41   118   112   am
    42    51    48    1
    43    82    84    1
    44    42    43    1
    45   112   111    1
    46    25    24    1
    47    74    73    2
    48    22    21    1
    49    22    23    2
    50    43    46    1
    51    43    44    1
    52    48    47    1
    53    48    49    1
    54    21    24    1
    55    21    20    1
    56   111   114    1
    57   111   110    1
    58    24    26    1
    59    73    72    1
    60   114   115    1
    61    44    45    2
    62   115   116   ar
    63   115   117   ar
    64   106   105    2
    65    71    72    1
    66    49    50    2
    67    49    52   am
    68   110   105   am
    69    72    75    1
    70   105   104    1
    71    52    53    1
    72    75    77    1
    73    75    76    1
    74   104   103    1
    75   104   107    1
    76    18    17    1
    77    19    17    1
    78    53    56    1
    79    53    54    1
    80    58    59    1
    81    58    57    1
    82    58    61    1
    83    15    14    2
    84    59    60    2
    85    57    63    1
    86    17    16    1
    87    16    13    1
    88   108   107    1
    89    61    62    1
    90   107   109    1
    91    54    55    2
    92    10    11   ar
    93    10     8   ar
    94    64    65    1
    95    11     9   ar
    96    14    13    1
    97    65    66    1
    98    65    68    1
    99    13    12    1
   100    66    67    2
   101    63    62    1
   102     8     6   ar
   103     9     7   ar
   104    70    68    1
   105    68    69    1
   106   162   160    1
   107   132   130    1
   108     6     7   ar
   109     6     5    1
   110     4     3    2
   111   151   149   ar
   112   151   150   ar
   113   149   147   ar
   114   174   173    1
   115   160   161    1
   116   160   159    2
   117   150   148   ar
   118   130   131    1
   119   130   129    2
   120     3     2    1
   121     5     2    1
   122   159   158    1
   123   147   146   ar
   124   172   173   ar
   125   172   170   ar
   126   173   171   ar
   127   148   146   ar
   128   129   128    1
   129     2     1    1
   130   146   145    1
   131   140   138    1
   132   158   157    1
   133   170   168   ar
   134   145   142    1
   135   171   169   ar
   136   128   127    1
   137   139   138    1
   138   138   137    1
   139   157   156    1
   140   168   169   ar
   141   168   167    1
   142   142   143    1
   143   142   141    1
   144   127   126    1
   145   156   153    1
   146   137   134    1
   147   143   144    2
   148   167   164    1
   149   126   123    1
   150   153   152    1
   151   153   154    1
   152   164   165    1
   153   164   163    1
   154   134   135    1
   155   134   133    1
   156   135   136    2
   157   122   123    1
   158   154   155    2
   159   123   124    1
   160   165   166    2
   161   124   125    2
