@<TRIPOS>MOLECULE
tmp/2cbsA00.pdb
 172 158 0 0 0
SMALL
GASTEIGER

@<TRIPOS>ATOM
      1  N         22.6220   16.3130   16.6760 N.3    15  PHE15      -0.1241
      2  CA        22.1910   17.6970   16.8330 C.3    15  PHE15       0.1605
      3  C         22.0350   18.3750   15.4700 C.2    15  PHE15       0.2264
      4  O         21.0410   19.0500   15.2200 O.2    15  PHE15      -0.2867
      5  CB        23.1920   18.4830   17.6880 C.3    15  PHE15       0.0534
      6  CG        22.7590   19.9010   17.9810 C.ar   15  PHE15      -0.0203
      7  CD1       21.6510   20.1510   18.7810 C.ar   15  PHE15      -0.0042
      8  CD2       23.4510   20.9830   17.4410 C.ar   15  PHE15      -0.0042
      9  CE1       21.2330   21.4600   19.0430 C.ar   15  PHE15      -0.0003
     10  CE2       23.0410   22.2960   17.6950 C.ar   15  PHE15      -0.0003
     11  CZ        21.9310   22.5330   18.4970 C.ar   15  PHE15      -0.0000
     12  N         18.5870   20.0400   13.4870 N.3    19  LEU19      -0.1245
     13  CA        18.4420   21.3510   12.8610 C.3    19  LEU19       0.1561
     14  C         18.1150   21.2330   11.3820 C.2    19  LEU19       0.2260
     15  O         17.4170   22.0760   10.8140 O.2    19  LEU19      -0.2867
     16  CB        19.7200   22.1680   13.0430 C.3    19  LEU19       0.0270
     17  CG        20.0520   22.5300   14.4960 C.3    19  LEU19       0.0019
     18  CD1       21.3480   23.3150   14.5310 C.3    19  LEU19       0.0001
     19  CD2       18.9020   23.3490   15.1100 C.3    19  LEU19       0.0001
     20  N         16.8590   24.6820    8.7990 N.3    24  VAL24      -0.1245
     21  CA        17.8760   25.7080    8.9930 C.3    24  VAL24       0.1561
     22  C         18.9110   25.5320    7.8810 C.2    24  VAL24       0.2260
     23  O         19.3830   24.4190    7.6530 O.2    24  VAL24      -0.2867
     24  CB        18.5580   25.5380   10.3660 C.3    24  VAL24       0.0252
     25  CG1       19.6720   26.5530   10.5280 C.3    24  VAL24       0.0019
     26  CG2       17.5250   25.6850   11.4720 C.3    24  VAL24       0.0019
     27  N         23.9510   28.5830    8.7660 N.3    28  LEU28      -0.1245
     28  CA        23.5320   28.7900   10.1460 C.3    28  LEU28       0.1561
     29  C         23.6930   27.5400   10.9970 C.2    28  LEU28       0.2260
     30  O         24.0240   27.6420   12.1760 O.2    28  LEU28      -0.2867
     31  CB        22.0790   29.2810   10.2220 C.3    28  LEU28       0.0270
     32  CG        21.8560   30.7650    9.9280 C.3    28  LEU28       0.0019
     33  CD1       20.3850   31.1130   10.0830 C.3    28  LEU28       0.0001
     34  CD2       22.6850   31.5920   10.9040 C.3    28  LEU28       0.0001
     35  N         27.2770   27.2850   12.4330 N.3    31  ILE31      -0.1231
     36  CA        27.5130   28.1740   13.5640 C.3    31  ILE31       0.1692
     37  C         26.8800   27.6200   14.8320 C.2    31  ILE31       0.2591
     38  O         27.4920   27.6380   15.8990 O.2    31  ILE31      -0.2718
     39  CB        26.9330   29.5830   13.2990 C.3    31  ILE31       0.0266
     40  CG1       27.5880   30.1910   12.0560 C.3    31  ILE31       0.0019
     41  CG2       27.1580   30.4790   14.5160 C.3    31  ILE31       0.0020
     42  CD1       27.0300   31.5500   11.6650 C.3    31  ILE31       0.0001
     43  N         25.6520   27.1250   14.7120 N.am   32  ALA32      -0.1980
     44  CA        24.9400   26.5690   15.8570 C.3    32  ALA32       0.1597
     45  C         25.6120   25.3010   16.3880 C.2    32  ALA32       0.2287
     46  O         25.8090   25.1560   17.5930 O.2    32  ALA32      -0.2864
     47  CB        23.4850   26.2740   15.4750 C.3    32  ALA32       0.0319
     48  N         28.9970   26.0560   18.3650 N.3    35  ALA35      -0.1231
     49  CA        28.7580   26.6410   19.6890 C.3    35  ALA35       0.1694
     50  C         28.0590   25.6910   20.6620 C.2    35  ALA35       0.2591
     51  O         28.3580   25.6850   21.8510 O.2    35  ALA35      -0.2718
     52  CB        27.9410   27.9250   19.5510 C.3    35  ALA35       0.0304
     53  N         27.1320   24.8890   20.1550 N.am   36  ALA36      -0.1980
     54  CA        26.3830   23.9540   20.9960 C.3    36  ALA36       0.1597
     55  C         27.2140   22.8120   21.5860 C.2    36  ALA36       0.2287
     56  O         26.7590   22.1220   22.4970 O.2    36  ALA36      -0.2864
     57  CB        25.2150   23.3710   20.2020 C.3    36  ALA36       0.0319
     58  N         28.3850   23.8100   25.7900 N.3    39  PRO39      -0.2116
     59  CA        27.4410   24.5460   26.6310 C.3    39  PRO39       0.1372
     60  C         27.7970   24.5520   28.1160 C.2    39  PRO39       0.2244
     61  O         28.5550   23.7120   28.5960 O.2    39  PRO39      -0.2868
     62  CB        26.1420   23.8000   26.3830 C.3    39  PRO39       0.0268
     63  CG        26.6500   22.3710   26.3840 C.3    39  PRO39       0.0207
     64  CD        27.8170   22.5020   25.4140 C.3    39  PRO39       0.0892
     65  N         25.5950   24.6020   31.5000 N.3    41  VAL41      -0.1245
     66  CA        24.2200   24.4630   31.9600 C.3    41  VAL41       0.1561
     67  C         24.1020   24.5870   33.4680 C.2    41  VAL41       0.2260
     68  O         24.8340   23.9460   34.2180 O.2    41  VAL41      -0.2867
     69  CB        23.6320   23.1010   31.5330 C.3    41  VAL41       0.0252
     70  CG1       22.1810   22.9860   31.9940 C.3    41  VAL41       0.0019
     71  CG2       23.7450   22.9380   30.0270 C.3    41  VAL41       0.0019
     72  N         20.9240   27.7500   29.9490 N.3    54  THR54      -0.1218
     73  CA        21.8420   27.0680   29.0390 C.3    54  THR54       0.1862
     74  C         22.5700   28.1520   28.2500 C.2    54  THR54       0.2287
     75  O         21.9500   28.8770   27.4730 O.2    54  THR54      -0.2866
     76  CB        21.0770   26.1480   28.0630 C.3    54  THR54       0.1770
     77  OG1       20.2890   25.2210   28.8110 O.3    54  THR54      -0.2211
     78  CG2       22.0510   25.3630   27.1860 C.3    54  THR54       0.0375
     79  N         25.7810   29.4970   25.6530 N.3    56  THR56      -0.1218
     80  CA        26.7600   29.2100   24.6110 C.3    56  THR56       0.1862
     81  C         27.2330   30.5820   24.1620 C.2    56  THR56       0.2287
     82  O         26.6470   31.5940   24.5440 O.2    56  THR56      -0.2866
     83  CB        26.1580   28.4890   23.3930 C.3    56  THR56       0.1770
     84  OG1       25.2130   29.3490   22.7380 O.3    56  THR56      -0.2211
     85  CG2       25.4820   27.1880   23.8230 C.3    56  THR56       0.0375
     86  N         26.9790   31.9070   21.2360 N.3    58  VAL58      -0.1231
     87  CA        26.0430   32.5390   20.3050 C.3    58  VAL58       0.1692
     88  C         24.6150   32.6830   20.8360 C.2    58  VAL58       0.2591
     89  O         23.7910   33.3610   20.2290 O.2    58  VAL58      -0.2718
     90  CB        25.9800   31.7630   18.9690 C.3    58  VAL58       0.0266
     91  CG1       27.3550   31.7240   18.3160 C.3    58  VAL58       0.0020
     92  CG2       25.4660   30.3540   19.2160 C.3    58  VAL58       0.0020
     93  N         24.3230   32.0490   21.9650 N.am   59  ARG59      -0.1980
     94  CA        22.9850   32.1240   22.5330 C.3    59  ARG59       0.1597
     95  C         22.8700   31.6080   23.9540 C.2    59  ARG59       0.2287
     96  O         23.5100   30.6330   24.3250 O.2    59  ARG59      -0.2864
     97  CB        21.9850   31.3480   21.6600 C.3    59  ARG59       0.0334
     98  CG        20.5720   31.3780   22.2200 C.3    59  ARG59       0.0492
     99  CD        19.5220   30.9920   21.1840 C.3    59  ARG59       0.2205
    100  NE        19.3710   29.5590   20.9960 N.pl3  59  ARG59      -0.0865
    101  CZ        18.5740   29.0150   20.0820 C.cat  59  ARG59       0.5346
    102  NH1       17.8650   29.7920   19.2730 N.pl3  59  ARG59       0.1354
    103  NH2       18.4520   27.6960   20.0030 N.pl3  59  ARG59       0.1354
    104  N         14.0100   24.8330   19.6090 N.3    76  VAL76      -0.1231
    105  CA        15.4410   24.9420   19.3660 C.3    76  VAL76       0.1692
    106  C         15.7400   25.9260   18.2320 C.2    76  VAL76       0.2592
    107  O         16.7400   26.6400   18.2750 O.2    76  VAL76      -0.2718
    108  CB        16.0580   23.5770   18.9970 C.3    76  VAL76       0.0266
    109  CG1       17.5820   23.6750   19.0320 C.3    76  VAL76       0.0020
    110  CG2       15.5610   22.5090   19.9410 C.3    76  VAL76       0.0020
    111  N         14.8760   25.9710   17.2210 N.am   77  ASP77      -0.1960
    112  CA        15.1050   26.8750   16.0960 C.3    77  ASP77       0.1840
    113  C         14.5900   28.2950   16.3210 C.2    77  ASP77       0.2622
    114  O         14.4380   29.0760   15.3810 O.2    77  ASP77      -0.2715
    115  CB        14.5410   26.2710   14.7960 C.3    77  ASP77       0.1450
    116  CG        13.0580   25.9830   14.8670 C.2    77  ASP77       0.3671
    117  OD1       12.5970   25.4330   15.8860 O.co2  77  ASP77      -0.2456
    118  OD2       12.3550   26.2800   13.8800 O.co2  77  ASP77      -0.2456
    119  N         14.3260   28.6170   17.5830 N.am   78  GLY78      -0.1954
    120  CA        13.8890   29.9530   17.9450 C.3    78  GLY78       0.1869
    121  C         12.4410   30.3640   17.7690 C.2    78  GLY78       0.2309
    122  O         12.1540   31.5580   17.7130 O.2    78  GLY78      -0.2863
    123  N         14.3340   15.3560   30.0530 N.3   111  ARG111     -0.1245
    124  CA        15.5560   15.4410   30.8380 C.3   111  ARG111      0.1563
    125  C         15.4210   14.3310   31.8550 C.2   111  ARG111      0.2260
    126  O         14.3820   14.1910   32.4980 O.2   111  ARG111     -0.2867
    127  CB        15.7100   16.8020   31.5220 C.3   111  ARG111      0.0307
    128  CG        16.1670   17.9110   30.5680 C.3   111  ARG111      0.0489
    129  CD        16.5540   19.1780   31.3320 C.3   111  ARG111      0.2205
    130  NE        17.2330   20.1580   30.4840 N.pl3 111  ARG111     -0.0865
    131  CZ        16.6290   20.9580   29.6090 C.cat 111  ARG111      0.5346
    132  NH1       15.3140   20.9120   29.4520 N.pl3 111  ARG111      0.1354
    133  NH2       17.3490   21.8070   28.8860 N.pl3 111  ARG111      0.1354
    134  N         19.6270   14.5420   28.0680 N.3   121  LEU121     -0.1245
    135  CA        18.6770   15.4640   27.4670 C.3   121  LEU121      0.1561
    136  C         18.4050   14.9370   26.0690 C.2   121  LEU121      0.2260
    137  O         19.3460   14.6060   25.3450 O.2   121  LEU121     -0.2867
    138  CB        19.2760   16.8720   27.3460 C.3   121  LEU121      0.0270
    139  CG        18.5180   17.8360   26.4120 C.3   121  LEU121      0.0019
    140  CD1       17.1620   18.2080   27.0130 C.3   121  LEU121      0.0001
    141  CD2       19.3460   19.0880   26.1910 C.3   121  LEU121      0.0001
    142  N         16.1550   15.8450   22.5370 N.3   123  MET123     -0.1245
    143  CA        15.3430   16.8420   21.8540 C.3   123  MET123      0.1570
    144  C         14.8620   16.1590   20.5940 C.2   123  MET123      0.2261
    145  O         15.6440   15.5140   19.8970 O.2   123  MET123     -0.2867
    146  CB        16.1650   18.0880   21.5070 C.3   123  MET123      0.0387
    147  CG        16.6300   18.8880   22.7310 C.3   123  MET123      0.0595
    148  SD        17.5510   20.3850   22.3160 S.3   123  MET123     -0.1393
    149  CE        18.9590   19.7310   21.4660 C.3   123  MET123      0.0692
    150  N         21.8200   14.2750   24.2010 N.3   132  ARG132     -0.1245
    151  CA        22.9140   15.0320   24.8110 C.3   132  ARG132      0.1563
    152  C         23.0970   14.5140   26.2390 C.2   132  ARG132      0.2260
    153  O         22.1290   14.4150   26.9920 O.2   132  ARG132     -0.2867
    154  CB        22.5430   16.5160   24.8590 C.3   132  ARG132      0.0307
    155  CG        21.9950   17.0650   23.5500 C.3   132  ARG132      0.0489
    156  CD        23.0280   17.8130   22.7450 C.3   132  ARG132      0.2205
    157  NE        23.3580   19.1010   23.3480 N.pl3 132  ARG132     -0.0865
    158  CZ        24.2920   19.9210   22.8790 C.cat 132  ARG132      0.5346
    159  NH1       24.9860   19.5830   21.7970 N.pl3 132  ARG132      0.1354
    160  NH2       24.5360   21.0720   23.4920 N.pl3 132  ARG132      0.1354
    161  N         25.1290   14.8920   29.9970 N.3   134  TYR134     -0.1241
    162  CA        25.8960   15.7770   30.8740 C.3   134  TYR134      0.1605
    163  C         26.2780   15.1050   32.1760 C.2   134  TYR134      0.2264
    164  O         25.7230   14.0750   32.5470 O.2   134  TYR134     -0.2867
    165  CB        25.0910   17.0150   31.2570 C.3   134  TYR134      0.0534
    166  CG        24.4770   17.7370   30.1020 C.ar  134  TYR134     -0.0201
    167  CD1       23.4640   17.1410   29.3610 C.ar  134  TYR134     -0.0009
    168  CD2       24.9230   19.0050   29.7290 C.ar  134  TYR134     -0.0009
    169  CE1       22.9060   17.7760   28.2800 C.ar  134  TYR134      0.0417
    170  CE2       24.3640   19.6570   28.6340 C.ar  134  TYR134      0.0417
    171  CZ        23.3550   19.0250   27.9190 C.ar  134  TYR134      0.1957
    172  OH        22.7830   19.6130   26.8310 O.3   134  TYR134     -0.2866
@<TRIPOS>BOND
     1    23    22    2
     2    22    21    1
     3    27    28    1
     4    20    21    1
     5    21    24    1
     6    32    33    1
     7    32    31    1
     8    32    34    1
     9    28    31    1
    10    28    29    1
    11    24    25    1
    12    24    26    1
    13    15    14    2
    14    29    30    2
    15    14    13    1
    16    42    40    1
    17    40    39    1
    18    35    36    1
    19    13    16    1
    20    13    12    1
    21    16    17    1
    22    39    36    1
    23    39    41    1
    24    36    37    1
    25   118   116   ar
    26    17    18    1
    27    17    19    1
    28    43    37   am
    29    43    44    1
    30   115   116    1
    31   115   112    1
    32    37    38    2
    33   116   117   ar
    34     4     3    2
    35   114   113    2
    36     3     2    1
    37    47    44    1
    38    44    45    1
    39   112   113    1
    40   112   111    1
    41   113   119   am
    42    45    46    2
    43     1     2    1
    44     2     5    1
    45   111   106   am
    46     8    10   ar
    47     8     6   ar
    48   119   120    1
    49     5     6    1
    50    10    11   ar
    51   122   121    2
    52   121   120    1
    53     6     7   ar
    54   106   107    2
    55   106   105    1
    56    91    90    1
    57    48    49    1
    58    11     9   ar
    59     7     9   ar
    60    90    92    1
    61    90    87    1
    62   108   109    1
    63   108   105    1
    64   108   110    1
    65   102   101    1
    66   105   104    1
    67    52    49    1
    68    49    50    1
    69   145   144    2
    70   103   101    1
    71   101   100    2
    72    53    50   am
    73    53    54    1
    74    57    54    1
    75    89    88    2
    76    87    88    1
    77    87    86    1
    78   144   143    1
    79    50    51    2
    80    88    93   am
    81    54    55    1
    82   100    99    1
    83    99    98    1
    84   149   148    1
    85   146   143    1
    86   146   147    1
    87    55    56    2
    88    97    98    1
    89    97    94    1
    90   159   158    1
    91   143   142    1
    92    93    94    1
    93   148   147    1
    94    94    95    1
    95    84    83    1
    96   156   157    1
    97   156   155    1
    98   158   157    2
    99   158   160    1
   100    83    85    1
   101    83    80    1
   102   155   154    1
   103    95    96    2
   104    81    82    2
   105    81    80    1
   106   150   151    1
   107    80    79    1
   108   151   154    1
   109   151   152    1
   110   137   136    2
   111    64    58    1
   112    64    63    1
   113    58    59    1
   114   136   135    1
   115   141   139    1
   116   152   153    2
   117    62    63    1
   118    62    59    1
   119   139   140    1
   120   139   138    1
   121    59    60    1
   122   172   171    1
   123    78    76    1
   124   138   135    1
   125   135   134    1
   126    75    74    2
   127   171   169   ar
   128   171   170   ar
   129    76    77    1
   130    76    73    1
   131    60    61    2
   132    74    73    1
   133   169   167   ar
   134   170   168   ar
   135   133   131    1
   136    73    72    1
   137   167   166   ar
   138   132   131    1
   139   131   130    2
   140   168   166   ar
   141   161   162    1
   142    71    69    1
   143   123   124    1
   144   166   165    1
   145   130   129    1
   146   128   129    1
   147   128   127    1
   148   124   127    1
   149   124   125    1
   150   162   165    1
   151   162   163    1
   152    65    66    1
   153    69    66    1
   154    69    70    1
   155   125   126    2
   156    66    67    1
   157   163   164    2
   158    67    68    2
