@<TRIPOS>MOLECULE
tmp/2cbuB00.pdb
 133 135 0 0 0
SMALL
GASTEIGER

@<TRIPOS>ATOM
      1  N        -17.0890  -32.3680  -15.0150 N.3    19  GLN19      -0.1245
      2  CA       -17.7470  -31.0770  -14.9460 C.3    19  GLN19       0.1566
      3  C        -17.2370  -30.1090  -16.0230 C.2    19  GLN19       0.2260
      4  O        -17.9550  -29.1910  -16.4070 O.2    19  GLN19      -0.2867
      5  CB       -17.5830  -30.4900  -13.5660 C.3    19  GLN19       0.0367
      6  CG       -18.1560  -31.4000  -12.5080 C.3    19  GLN19       0.0905
      7  CD       -18.2170  -30.7660  -11.1890 C.2    19  GLN19       0.2608
      8  OE1      -17.3630  -31.0180  -10.3270 O.2    19  GLN19      -0.2717
      9  NE2      -19.2320  -29.9280  -10.9830 N.am   19  GLN19      -0.0878
     10  N        -13.2020  -38.2590   -8.5920 N.3   120  HIS120     -0.1226
     11  CA       -14.2030  -37.2030   -8.3970 C.3   120  HIS120      0.1752
     12  C        -15.5060  -37.5810   -9.1060 C.2   120  HIS120      0.2596
     13  O        -16.0590  -36.7770   -9.8790 O.2   120  HIS120     -0.2718
     14  CB       -13.6820  -35.8300   -8.9170 C.3   120  HIS120      0.0759
     15  CG       -14.3260  -34.6310   -8.2890 C.ar  120  HIS120      0.0818
     16  ND1      -13.5820  -33.6440   -7.6670 N.ar  120  HIS120     -0.2268
     17  CD2      -15.6100  -34.2060   -8.2580 C.ar  120  HIS120      0.1154
     18  CE1      -14.3870  -32.6890   -7.2450 C.ar  120  HIS120      0.1986
     19  NE2      -15.6240  -32.9910   -7.6130 N.ar  120  HIS120     -0.2212
     20  N        -15.9580  -38.8310   -8.8400 N.am  121  TRP121     -0.1976
     21  CA       -17.3670  -39.2660   -8.9900 C.3   121  TRP121      0.1640
     22  C        -17.6920  -39.9590  -10.3010 C.2   121  TRP121      0.2290
     23  O        -18.8150  -40.4630  -10.4640 O.2   121  TRP121     -0.2864
     24  CB       -18.3580  -38.0990   -8.8080 C.3   121  TRP121      0.0576
     25  CG       -18.2980  -37.3740   -7.4940 C.ar  121  TRP121      0.0006
     26  CD1      -17.4280  -37.5960   -6.4460 C.ar  121  TRP121      0.0946
     27  CD2      -19.1190  -36.2550   -7.1050 C.ar  121  TRP121      0.0152
     28  NE1      -17.6800  -36.7030   -5.4300 N.ar  121  TRP121     -0.2442
     29  CE2      -18.7180  -35.8780   -5.7990 C.ar  121  TRP121      0.0810
     30  CE3      -20.1940  -35.5810   -7.7090 C.ar  121  TRP121      0.0012
     31  CZ2      -19.3260  -34.8410   -5.0970 C.ar  121  TRP121      0.0191
     32  CZ3      -20.8140  -34.5410   -7.0090 C.ar  121  TRP121      0.0001
     33  CH2      -20.3600  -34.1730   -5.7000 C.ar  121  TRP121      0.0015
     34  N        -12.8810  -37.5120   -3.5320 N.3   164  ASN164     -0.1225
     35  CA       -13.6240  -36.2950   -3.2750 C.3   164  ASN164      0.1785
     36  C        -14.9530  -36.6010   -2.6170 C.2   164  ASN164      0.2597
     37  O        -15.7930  -37.2350   -3.2310 O.2   164  ASN164     -0.2718
     38  CB       -13.8890  -35.5380   -4.5660 C.3   164  ASN164      0.1169
     39  CG       -14.6160  -34.2330   -4.3260 C.2   164  ASN164      0.2627
     40  OD1      -14.0140  -33.2650   -3.8540 O.2   164  ASN164     -0.2716
     41  ND2      -15.9210  -34.1940   -4.6440 N.am  164  ASN164     -0.0877
     42  N        -15.1380  -36.1390   -1.3850 N.am  165  GLU165     -0.1979
     43  CA       -16.4590  -36.1150   -0.7080 C.3   165  GLU165      0.1602
     44  C        -17.1480  -37.4900   -0.7430 C.2   165  GLU165      0.2287
     45  O        -18.2530  -37.6200   -1.3090 O.2   165  GLU165     -0.2864
     46  CB       -17.4120  -35.0540   -1.2950 C.3   165  GLU165      0.0415
     47  CG       -16.8370  -33.5970   -1.2640 C.3   165  GLU165      0.1163
     48  CD       -17.8650  -32.5580   -1.6360 C.2   165  GLU165      0.3649
     49  OE1      -18.8840  -32.9010   -2.2890 O.co2 165  GLU165     -0.2457
     50  OE2      -17.6550  -31.3630   -1.2810 O.co2 165  GLU165     -0.2457
     51  N        -18.8090  -24.6590    2.5240 N.3   294  TYR294     -0.1241
     52  CA       -19.7160  -23.7870    1.7860 C.3   294  TYR294      0.1605
     53  C        -20.7680  -23.1060    2.6580 C.2   294  TYR294      0.2264
     54  O        -21.0460  -21.9210    2.4890 O.2   294  TYR294     -0.2867
     55  CB       -20.4060  -24.5950    0.6770 C.3   294  TYR294      0.0534
     56  CG       -19.4870  -24.9470   -0.4560 C.ar  294  TYR294     -0.0201
     57  CD1      -19.3830  -24.1160   -1.5710 C.ar  294  TYR294     -0.0009
     58  CD2      -18.7150  -26.1150   -0.4180 C.ar  294  TYR294     -0.0009
     59  CE1      -18.5560  -24.4170   -2.6000 C.ar  294  TYR294      0.0417
     60  CE2      -17.8690  -26.4300   -1.4460 C.ar  294  TYR294      0.0417
     61  CZ       -17.8020  -25.5820   -2.5460 C.ar  294  TYR294      0.1957
     62  OH       -17.0050  -25.8880   -3.5960 O.3   294  TYR294     -0.2866
     63  N        -27.9810  -21.7780   -0.3220 N.3   321  TRP321     -0.1241
     64  CA       -27.1540  -22.0840    0.8340 C.3   321  TRP321      0.1605
     65  C        -26.7960  -20.8210    1.6070 C.2   321  TRP321      0.2264
     66  O        -26.2040  -19.8760    1.0490 O.2   321  TRP321     -0.2867
     67  CB       -25.8600  -22.7970    0.4200 C.3   321  TRP321      0.0550
     68  CG       -26.0470  -24.0670   -0.3550 C.ar  321  TRP321      0.0003
     69  CD1      -27.1600  -24.8500   -0.3950 C.ar  321  TRP321      0.0946
     70  CD2      -25.0580  -24.7300   -1.1530 C.ar  321  TRP321      0.0152
     71  NE1      -26.9450  -25.9420   -1.2180 N.ar  321  TRP321     -0.2442
     72  CE2      -25.6590  -25.8980   -1.6810 C.ar  321  TRP321      0.0810
     73  CE3      -23.7250  -24.4410   -1.4910 C.ar  321  TRP321      0.0012
     74  CZ2      -24.9690  -26.7820   -2.5180 C.ar  321  TRP321      0.0191
     75  CZ3      -23.0410  -25.3130   -2.3210 C.ar  321  TRP321      0.0001
     76  CH2      -23.6710  -26.4750   -2.8320 C.ar  321  TRP321      0.0015
     77  N        -11.9690  -26.9140   -1.3160 N.3   348  GLU348     -0.1245
     78  CA       -13.0150  -26.1530   -2.0170 C.3   348  GLU348      0.1567
     79  C        -13.6890  -25.1210   -1.1350 C.2   348  GLU348      0.2260
     80  O        -14.0620  -25.3870   -0.0040 O.2   348  GLU348     -0.2867
     81  CB       -14.1710  -27.0500   -2.4880 C.3   348  GLU348      0.0388
     82  CG       -13.8600  -27.9770   -3.6560 C.3   348  GLU348      0.1160
     83  CD       -15.0650  -28.7900   -4.0810 C.2   348  GLU348      0.3649
     84  OE1      -16.2160  -28.3380   -3.8740 O.co2 348  GLU348     -0.2457
     85  OE2      -14.8400  -29.8730   -4.6470 O.co2 348  GLU348     -0.2457
     86  N        -13.4740  -23.1850   -5.4060 N.3   395  TRP395     -0.1241
     87  CA       -14.3420  -23.8480   -6.3560 C.3   395  TRP395      0.1605
     88  C        -15.2310  -22.7790   -6.9840 C.2   395  TRP395      0.2264
     89  O        -16.0790  -22.1940   -6.2660 O.2   395  TRP395     -0.2867
     90  CB       -15.2260  -24.9220   -5.7070 C.3   395  TRP395      0.0550
     91  CG       -15.9850  -25.6580   -6.7680 C.ar  395  TRP395      0.0003
     92  CD1      -17.2030  -25.3310   -7.2950 C.ar  395  TRP395      0.0946
     93  CD2      -15.5330  -26.8010   -7.4750 C.ar  395  TRP395      0.0152
     94  NE1      -17.5450  -26.2120   -8.3050 N.ar  395  TRP395     -0.2442
     95  CE2      -16.5290  -27.1270   -8.4340 C.ar  395  TRP395      0.0810
     96  CE3      -14.3830  -27.5980   -7.3930 C.ar  395  TRP395      0.0012
     97  CZ2      -16.4110  -28.2150   -9.2750 C.ar  395  TRP395      0.0191
     98  CZ3      -14.2690  -28.6880   -8.2430 C.ar  395  TRP395      0.0001
     99  CH2      -15.2700  -28.9780   -9.1700 C.ar  395  TRP395      0.0015
    100  N        -22.8360  -28.4870  -13.0510 N.3   402  GLU402     -0.1231
    101  CA       -23.1000  -28.6220  -11.6280 C.3   402  GLU402      0.1699
    102  C        -24.0330  -29.8290  -11.3440 C.2   402  GLU402      0.2592
    103  O        -25.1080  -29.7020  -10.7590 O.2   402  GLU402     -0.2718
    104  CB       -23.6090  -27.3010  -11.0450 C.3   402  GLU402      0.0402
    105  CG       -23.9190  -27.3370   -9.5280 C.3   402  GLU402      0.1161
    106  CD       -22.7750  -27.8490   -8.6380 C.2   402  GLU402      0.3649
    107  OE1      -21.5770  -27.6930   -8.9780 O.co2 402  GLU402     -0.2457
    108  OE2      -23.0890  -28.4030   -7.5540 O.co2 402  GLU402     -0.2457
    109  N        -23.5960  -31.0020  -11.7990 N.am  403  TRP403     -0.1976
    110  CA       -24.2450  -32.2810  -11.4370 C.3   403  TRP403      0.1640
    111  C        -25.7570  -32.2490  -11.7200 C.2   403  TRP403      0.2290
    112  O        -26.1410  -31.8890  -12.8470 O.2   403  TRP403     -0.2864
    113  CB       -23.8850  -32.6500   -9.9890 C.3   403  TRP403      0.0576
    114  CG       -22.3950  -32.6780   -9.7610 C.ar  403  TRP403      0.0006
    115  CD1      -21.6750  -31.8640   -8.9190 C.ar  403  TRP403      0.0946
    116  CD2      -21.4450  -33.5290  -10.4060 C.ar  403  TRP403      0.0152
    117  NE1      -20.3380  -32.1640   -9.0120 N.ar  403  TRP403     -0.2442
    118  CE2      -20.1680  -33.1870   -9.9080 C.ar  403  TRP403      0.0810
    119  CE3      -21.5440  -34.5510  -11.3700 C.ar  403  TRP403      0.0012
    120  CZ2      -18.9940  -33.8560  -10.3160 C.ar  403  TRP403      0.0191
    121  CZ3      -20.3760  -35.2140  -11.7770 C.ar  403  TRP403      0.0001
    122  CH2      -19.1180  -34.8570  -11.2510 C.ar  403  TRP403      0.0015
    123  N        -20.3580  -21.4820  -10.5780 N.3   411  PHE411     -0.1241
    124  CA       -19.4460  -21.4040   -9.4210 C.3   411  PHE411      0.1605
    125  C        -18.0960  -20.7890   -9.8250 C.2   411  PHE411      0.2264
    126  O        -17.2020  -20.6410   -8.9980 O.2   411  PHE411     -0.2867
    127  CB       -19.1760  -22.8130   -8.8210 C.3   411  PHE411      0.0534
    128  CG       -20.2000  -23.2810   -7.8190 C.ar  411  PHE411     -0.0203
    129  CD1      -21.3450  -23.9780   -8.2280 C.ar  411  PHE411     -0.0042
    130  CD2      -19.9960  -23.0870   -6.4590 C.ar  411  PHE411     -0.0042
    131  CE1      -22.2680  -24.4270   -7.2970 C.ar  411  PHE411     -0.0003
    132  CE2      -20.9180  -23.5370   -5.5160 C.ar  411  PHE411     -0.0003
    133  CZ       -22.0660  -24.2060   -5.9380 C.ar  411  PHE411     -0.0000
@<TRIPOS>BOND
     1     4     3    2
     2     3     2    1
     3     1     2    1
     4     2     5    1
     5     5     6    1
     6   100   101    1
     7   112   111    2
     8     6     7    1
     9   109   110    1
    10   109   102   am
    11   121   119   ar
    12   121   122   ar
    13   111   110    1
    14   101   102    1
    15   101   104    1
    16   110   113    1
    17   119   116   ar
    18   102   103    2
    19   122   120   ar
    20     7     9   am
    21     7     8    2
    22   104   105    1
    23   123   124    1
    24    23    22    2
    25   116   118   ar
    26   116   114   ar
    27   120   118   ar
    28    22    21    1
    29   113   114    1
    30   118   117   ar
    31    13    12    2
    32   125   124    1
    33   125   126    2
    34   114   115   ar
    35   105   106    1
    36   124   127    1
    37    97    99   ar
    38    97    95   ar
    39    99    98   ar
    40    12    20   am
    41    12    11    1
    42   117   115   ar
    43    21    20    1
    44    21    24    1
    45   107   106   ar
    46    14    11    1
    47    14    15    1
    48   127   128    1
    49    24    25    1
    50   106   108   ar
    51    10    11    1
    52    95    94   ar
    53    95    93   ar
    54    94    92   ar
    55    15    17   ar
    56    15    16   ar
    57    17    19   ar
    58    98    96   ar
    59   129   128   ar
    60   129   131   ar
    61   128   130   ar
    62    30    27   ar
    63    30    32   ar
    64    16    18   ar
    65    19    18   ar
    66    25    27   ar
    67    25    26   ar
    68    93    96   ar
    69    93    91   ar
    70   131   133   ar
    71    92    91   ar
    72    27    29   ar
    73    32    33   ar
    74    88    87    1
    75    88    89    2
    76    91    90    1
    77   130   132   ar
    78    26    28   ar
    79    87    90    1
    80    87    86    1
    81   133   132   ar
    82    29    28   ar
    83    29    31   ar
    84    33    31   ar
    85    85    83   ar
    86    41    39   am
    87    38    39    1
    88    38    35    1
    89    39    40    2
    90    83    84   ar
    91    83    82    1
    92    82    81    1
    93    62    61    1
    94    34    35    1
    95    35    36    1
    96    37    36    2
    97    76    74   ar
    98    76    75   ar
    99    36    42   am
   100    59    61   ar
   101    59    57   ar
   102    61    60   ar
   103    74    72   ar
   104    81    78    1
   105    75    73   ar
   106    49    48   ar
   107    78    77    1
   108    78    79    1
   109    72    71   ar
   110    72    70   ar
   111    48    50   ar
   112    48    47    1
   113    57    56   ar
   114    73    70   ar
   115    60    58   ar
   116    42    43    1
   117    45    44    2
   118    46    47    1
   119    46    43    1
   120    71    69   ar
   121    70    68   ar
   122    79    80    2
   123    44    43    1
   124    56    58   ar
   125    56    55    1
   126    69    68   ar
   127    68    67    1
   128    63    64    1
   129    67    64    1
   130    55    52    1
   131    64    65    1
   132    66    65    2
   133    52    51    1
   134    52    53    1
   135    54    53    2
