@<TRIPOS>MOLECULE
tmp/2cbvA00.pdb
 150 151 0 0 0
SMALL
GASTEIGER

@<TRIPOS>ATOM
      1  N          2.8660   13.8790    0.7250 N.3    18  GLN18      -0.1245
      2  CA         1.5790   13.2340    0.4920 C.3    18  GLN18       0.1566
      3  C          0.7650   13.8970   -0.6130 C.2    18  GLN18       0.2260
      4  O         -0.0490   13.2180   -1.2230 O.2    18  GLN18      -0.2867
      5  CB         0.7500   13.1560    1.7640 C.3    18  GLN18       0.0367
      6  CG         1.4810   12.3790    2.8450 C.3    18  GLN18       0.0905
      7  CD         0.6430   12.1840    4.0830 C.2    18  GLN18       0.2608
      8  OE1        0.8360   12.8810    5.0660 O.2    18  GLN18      -0.2717
      9  NE2       -0.2730   11.1810    4.0590 N.am   18  GLN18      -0.0878
     10  N          7.6870   16.8400    8.2480 N.3   119  HIS119     -0.1226
     11  CA         6.6570   15.7970    8.1710 C.3   119  HIS119      0.1752
     12  C          7.2050   14.6520    7.3190 C.2   119  HIS119      0.2596
     13  O          6.5810   14.2490    6.3310 O.2   119  HIS119     -0.2718
     14  CB         5.3500   16.4020    7.6010 C.3   119  HIS119      0.0759
     15  CG         4.0980   15.6300    7.9300 C.ar  119  HIS119      0.0818
     16  ND1        2.9640   16.2510    8.4110 N.ar  119  HIS119     -0.2268
     17  CD2        3.7650   14.3260    7.7510 C.ar  119  HIS119      0.1154
     18  CE1        2.0000   15.3580    8.5590 C.ar  119  HIS119      0.1986
     19  NE2        2.4640   14.1760    8.1760 N.ar  119  HIS119     -0.2212
     20  N          8.4410   14.2080    7.6670 N.am  120  TRP120     -0.1976
     21  CA         8.9450   12.8570    7.3450 C.3   120  TRP120      0.1640
     22  C          9.8010   12.7300    6.0990 C.2   120  TRP120      0.2290
     23  O         10.4380   11.6900    5.9030 O.2   120  TRP120     -0.2864
     24  CB         7.8020   11.8440    7.2070 C.3   120  TRP120      0.0576
     25  CG         6.9210   11.6510    8.4540 C.ar  120  TRP120      0.0006
     26  CD1        6.9680   12.3470    9.6450 C.ar  120  TRP120      0.0946
     27  CD2        5.8740   10.7090    8.5700 C.ar  120  TRP120      0.0152
     28  NE1        5.9930   11.8470   10.5210 N.ar  120  TRP120     -0.2442
     29  CE2        5.3040   10.8550    9.8680 C.ar  120  TRP120      0.0810
     30  CE3        5.3400    9.7520    7.6920 C.ar  120  TRP120      0.0012
     31  CZ2        4.2530   10.0660   10.3050 C.ar  120  TRP120      0.0191
     32  CZ3        4.2990    8.9610    8.1210 C.ar  120  TRP120      0.0001
     33  CH2        3.7450    9.1220    9.4150 C.ar  120  TRP120      0.0015
     34  N          6.3790   16.4690   13.1080 N.3   163  ASN163     -0.1225
     35  CA         5.1510   15.6610   13.0550 C.3   163  ASN163      0.1785
     36  C          5.3870   14.2390   13.5000 C.2   163  ASN163      0.2597
     37  O          6.1360   13.4910   12.8520 O.2   163  ASN163     -0.2718
     38  CB         4.5640   15.6140   11.6500 C.3   163  ASN163      0.1169
     39  CG         3.2680   14.8320   11.5960 C.2   163  ASN163      0.2627
     40  OD1        2.2210   15.2970   12.0990 O.2   163  ASN163     -0.2716
     41  ND2        3.3270   13.6070   11.0400 N.am  163  ASN163     -0.0877
     42  N          4.7050   13.8490   14.5850 N.am  164  GLU164     -0.1979
     43  CA         4.6570   12.4560   15.0490 C.3   164  GLU164      0.1602
     44  C          6.0550   11.7970   15.1950 C.2   164  GLU164      0.2287
     45  O          6.3230   10.7610   14.5560 O.2   164  GLU164     -0.2864
     46  CB         3.7420   11.6010   14.1560 C.3   164  GLU164      0.0415
     47  CG         2.2740   12.0860   14.1460 C.3   164  GLU164      0.1163
     48  CD         1.3210   11.1440   13.4350 C.2   164  GLU164      0.3649
     49  OE1        1.7710   10.0660   13.0240 O.co2 164  GLU164     -0.2457
     50  OE2        0.0990   11.4750   13.3060 O.co2 164  GLU164     -0.2457
     51  N          6.3180    7.9710   15.4820 N.3   167  VAL167     -0.1245
     52  CA         6.2040    7.2340   14.2110 C.3   167  VAL167      0.1561
     53  C          7.5290    7.2980   13.4340 C.2   167  VAL167      0.2260
     54  O          8.0060    6.2760   12.9690 O.2   167  VAL167     -0.2867
     55  CB         5.0370    7.7730   13.3150 C.3   167  VAL167      0.0252
     56  CG1        4.9620    6.9950   11.9880 C.3   167  VAL167      0.0019
     57  CG2        3.7030    7.6950   14.0540 C.3   167  VAL167      0.0019
     58  N          7.9990    2.3890    7.5080 N.3   178  HIS178     -0.1241
     59  CA         8.1300    3.7120    6.8870 C.3   178  HIS178      0.1621
     60  C          9.6000    3.9610    6.5980 C.2   178  HIS178      0.2264
     61  O         10.4600    3.2940    7.1790 O.2   178  HIS178     -0.2867
     62  CB         7.6530    4.8170    7.8290 C.3   178  HIS178      0.0745
     63  CG         6.1550    4.9050    7.9600 C.ar  178  HIS178      0.0817
     64  ND1        5.5460    5.7370    8.8700 N.ar  178  HIS178     -0.2268
     65  CD2        5.1540    4.2210    7.3480 C.ar  178  HIS178      0.1154
     66  CE1        4.2350    5.6050    8.7800 C.ar  178  HIS178      0.1986
     67  NE2        3.9670    4.6920    7.8610 N.ar  178  HIS178     -0.2212
     68  N         -6.8470    9.6990   16.1410 N.3   292  TYR292     -0.1241
     69  CA        -7.7060    8.9360   15.2140 C.3   292  TYR292      0.1605
     70  C         -8.5010    7.8010   15.8310 C.2   292  TYR292      0.2264
     71  O         -9.6370    7.5430   15.4220 O.2   292  TYR292     -0.2867
     72  CB        -6.8660    8.2980   14.0790 C.3   292  TYR292      0.0534
     73  CG        -6.2680    9.3300   13.1710 C.ar  292  TYR292     -0.0201
     74  CD1       -6.9920    9.8110   12.0880 C.ar  292  TYR292     -0.0009
     75  CD2       -5.0020    9.8740   13.4300 C.ar  292  TYR292     -0.0009
     76  CE1       -6.4590   10.7860   11.2490 C.ar  292  TYR292      0.0417
     77  CE2       -4.4560   10.8670   12.5960 C.ar  292  TYR292      0.0417
     78  CZ        -5.1940   11.3030   11.5100 C.ar  292  TYR292      0.1957
     79  OH        -4.7170   12.2580   10.6610 O.3   292  TYR292     -0.2866
     80  N         -9.1460    1.0880   11.9160 N.3   321  TRP321     -0.1241
     81  CA        -9.0250    1.8500   13.1540 C.3   321  TRP321      0.1605
     82  C        -10.4010    1.9990   13.8310 C.2   321  TRP321      0.2264
     83  O        -11.3200    2.5630   13.2480 O.2   321  TRP321     -0.2867
     84  CB        -8.4510    3.2390   12.8530 C.3   321  TRP321      0.0550
     85  CG        -7.0120    3.2420   12.3520 C.ar  321  TRP321      0.0003
     86  CD1       -6.1380    2.1940   12.3610 C.ar  321  TRP321      0.0946
     87  CD2       -6.2880    4.3670   11.8250 C.ar  321  TRP321      0.0152
     88  NE1       -4.9270    2.5800   11.8470 N.ar  321  TRP321     -0.2442
     89  CE2       -4.9870    3.9150   11.5210 C.ar  321  TRP321      0.0810
     90  CE3       -6.6210    5.7170   11.5690 C.ar  321  TRP321      0.0012
     91  CZ2       -4.0010    4.7610   10.9690 C.ar  321  TRP321      0.0191
     92  CZ3       -5.6380    6.5660   11.0230 C.ar  321  TRP321      0.0001
     93  CH2       -4.3480    6.0750   10.7130 C.ar  321  TRP321      0.0015
     94  N         -4.4620   17.1120   13.8390 N.3   348  GLU348     -0.1245
     95  CA        -5.0680   16.1440   12.9290 C.3   348  GLU348      0.1567
     96  C         -6.1660   15.3570   13.6130 C.2   348  GLU348      0.2260
     97  O         -5.9930   14.8950   14.7330 O.2   348  GLU348     -0.2867
     98  CB        -4.0370   15.1060   12.4030 C.3   348  GLU348      0.0388
     99  CG        -2.9180   15.6790   11.5530 C.3   348  GLU348      0.1160
    100  CD        -1.9680   14.6000   11.0360 C.2   348  GLU348      0.3649
    101  OE1       -2.3710   13.4110   10.9600 O.co2 348  GLU348     -0.2457
    102  OE2       -0.8280   14.9550   10.7090 O.co2 348  GLU348     -0.2457
    103  N         -7.6760   16.3050    9.1990 N.3   395  TRP395     -0.1241
    104  CA        -6.8680   15.5430    8.2270 C.3   395  TRP395      0.1605
    105  C         -7.8360   14.7680    7.3320 C.2   395  TRP395      0.2264
    106  O         -8.5340   13.8730    7.8320 O.2   395  TRP395     -0.2867
    107  CB        -5.9380   14.5370    8.9250 C.3   395  TRP395      0.0550
    108  CG        -5.0570   13.8820    7.9010 C.ar  395  TRP395      0.0003
    109  CD1       -5.3240   12.7620    7.1770 C.ar  395  TRP395      0.0946
    110  CD2       -3.8310   14.4040    7.4170 C.ar  395  TRP395      0.0152
    111  NE1       -4.3070   12.5330    6.2510 N.ar  395  TRP395     -0.2442
    112  CE2       -3.3710   13.5310    6.3910 C.ar  395  TRP395      0.0810
    113  CE3       -3.0630   15.5290    7.7460 C.ar  395  TRP395      0.0012
    114  CZ2       -2.1630   13.7390    5.7130 C.ar  395  TRP395      0.0191
    115  CZ3       -1.8460   15.7200    7.0840 C.ar  395  TRP395      0.0001
    116  CH2       -1.4200   14.8360    6.0660 C.ar  395  TRP395      0.0015
    117  N         -1.1490    7.9340    1.1890 N.3   402  GLU402     -0.1231
    118  CA        -1.1690    7.5450    2.5910 C.3   402  GLU402      0.1699
    119  C          0.0100    6.6250    2.9500 C.2   402  GLU402      0.2592
    120  O         -0.1670    5.4730    3.3450 O.2   402  GLU402     -0.2718
    121  CB        -2.5270    6.9530    2.9850 C.3   402  GLU402      0.0402
    122  CG        -2.6210    6.5120    4.4750 C.3   402  GLU402      0.1161
    123  CD        -2.3160    7.6050    5.4760 C.2   402  GLU402      0.3649
    124  OE1       -2.6060    8.8140    5.1930 O.co2 402  GLU402     -0.2457
    125  OE2       -1.7920    7.2390    6.5600 O.co2 402  GLU402     -0.2457
    126  N          1.2290    7.1660    2.8060 N.am  403  TRP403     -0.1976
    127  CA         2.4500    6.4500    3.1920 C.3   403  TRP403      0.1640
    128  C          2.4720    5.0310    2.6340 C.2   403  TRP403      0.2290
    129  O          2.2340    4.8650    1.4410 O.2   403  TRP403     -0.2864
    130  CB         2.6780    6.5690    4.7120 C.3   403  TRP403      0.0576
    131  CG         2.5940    8.0160    5.1310 C.ar  403  TRP403      0.0006
    132  CD1        1.6550    8.5870    5.9590 C.ar  403  TRP403      0.0946
    133  CD2        3.4730    9.0900    4.7200 C.ar  403  TRP403      0.0152
    134  NE1        1.9230    9.9410    6.1160 N.ar  403  TRP403     -0.2442
    135  CE2        3.0220   10.2730    5.3600 C.ar  403  TRP403      0.0810
    136  CE3        4.6120    9.1630    3.8830 C.ar  403  TRP403      0.0012
    137  CZ2        3.6630   11.5160    5.1800 C.ar  403  TRP403      0.0191
    138  CZ3        5.2620   10.3900    3.7220 C.ar  403  TRP403      0.0001
    139  CH2        4.7680   11.5640    4.3660 C.ar  403  TRP403      0.0015
    140  N         -8.5250   10.0930    2.9390 N.3   411  PHE411     -0.1241
    141  CA        -8.8530   10.8510    4.1510 C.3   411  PHE411      0.1605
    142  C         -9.4050   12.2410    3.8720 C.2   411  PHE411      0.2264
    143  O         -9.6830   12.9690    4.8070 O.2   411  PHE411     -0.2867
    144  CB        -7.5860   11.0950    4.9830 C.3   411  PHE411      0.0534
    145  CG        -7.2110    9.9870    5.8810 C.ar  411  PHE411     -0.0203
    146  CD1       -6.3630    8.9690    5.4460 C.ar  411  PHE411     -0.0042
    147  CD2       -7.6430    9.9830    7.2110 C.ar  411  PHE411     -0.0042
    148  CE1       -5.9650    7.9600    6.3060 C.ar  411  PHE411     -0.0003
    149  CE2       -7.2600    8.9570    8.0740 C.ar  411  PHE411     -0.0003
    150  CZ        -6.4150    7.9540    7.6320 C.ar  411  PHE411     -0.0000
@<TRIPOS>BOND
     1     4     3    2
     2     3     2    1
     3     2     1    1
     4     2     5    1
     5   117   118    1
     6   129   128    2
     7     5     6    1
     8   118   119    1
     9   118   121    1
    10   128   127    1
    11   126   119   am
    12   126   127    1
    13     6     7    1
    14   140   141    1
    15   119   120    2
    16   121   122    1
    17   127   130    1
    18   138   136   ar
    19   138   139   ar
    20   142   141    1
    21   142   143    2
    22   136   133   ar
    23     9     7   am
    24     7     8    2
    25   141   144    1
    26   139   137   ar
    27   122   123    1
    28   130   131    1
    29   133   131   ar
    30   133   135   ar
    31   144   145    1
    32   131   132   ar
    33   137   135   ar
    34   124   123   ar
    35   135   134   ar
    36   146   145   ar
    37   146   148   ar
    38   123   125   ar
    39   114   116   ar
    40   114   112   ar
    41   145   147   ar
    42    23    22    2
    43   132   134   ar
    44   116   115   ar
    45    22    21    1
    46   111   112   ar
    47   111   109   ar
    48   148   150   ar
    49    13    12    2
    50   112   110   ar
    51    60    59    1
    52    60    61    2
    53    59    58    1
    54    59    62    1
    55   115   113   ar
    56   109   108   ar
    57    24    21    1
    58    24    25    1
    59   147   149   ar
    60    12    20   am
    61    12    11    1
    62   105   106    2
    63   105   104    1
    64    21    20    1
    65    65    67   ar
    66    65    63   ar
    67   110   113   ar
    68   110   108   ar
    69    14    15    1
    70    14    11    1
    71   150   149   ar
    72    30    32   ar
    73    30    27   ar
    74    17    15   ar
    75    17    19   ar
    76    62    63    1
    77    67    66   ar
    78   108   107    1
    79    15    16   ar
    80    63    64   ar
    81    32    33   ar
    82    11    10    1
    83    19    18   ar
    84   104   107    1
    85   104   103    1
    86    16    18   ar
    87    25    27   ar
    88    25    26   ar
    89    27    29   ar
    90    66    64   ar
    91    33    31   ar
    92    26    28   ar
    93    29    31   ar
    94    29    28   ar
    95    79    78    1
    96   102   100   ar
    97    93    91   ar
    98    93    92   ar
    99   101   100   ar
   100    91    89   ar
   101    92    90   ar
   102   100    99    1
   103    41    39   am
   104    76    78   ar
   105    76    74   ar
   106    78    77   ar
   107    89    87   ar
   108    89    88   ar
   109    99    98    1
   110    90    87   ar
   111    39    38    1
   112    39    40    2
   113    38    35    1
   114    87    85   ar
   115    88    86   ar
   116    80    81    1
   117    56    55    1
   118    74    73   ar
   119    85    86   ar
   120    85    84    1
   121    98    95    1
   122    77    75   ar
   123    37    36    2
   124    84    81    1
   125    95    96    1
   126    95    94    1
   127    54    53    2
   128    49    48   ar
   129    35    34    1
   130    35    36    1
   131    81    82    1
   132    73    75   ar
   133    73    72    1
   134    83    82    2
   135    50    48   ar
   136    55    57    1
   137    55    52    1
   138    53    52    1
   139    48    47    1
   140    36    42   am
   141    96    97    2
   142    72    69    1
   143    47    46    1
   144    46    43    1
   145    52    51    1
   146    45    44    2
   147    42    43    1
   148    43    44    1
   149    69    70    1
   150    69    68    1
   151    71    70    2
