@<TRIPOS>MOLECULE
tmp/2cbxB01.pdb
 87 87 0 0 0
SMALL
GASTEIGER

@<TRIPOS>ATOM
      1  N         -0.4900   24.0240  -22.0590 N.3     9  ASP9       -0.1225
      2  CA        -0.9080   24.4340  -23.3960 C.3     9  ASP9        0.1805
      3  C         -2.0350   25.4740  -23.3360 C.2     9  ASP9        0.2597
      4  O         -2.7800   25.6560  -24.2980 O.2     9  ASP9       -0.2718
      5  CB        -1.3680   23.1860  -24.1930 C.3     9  ASP9        0.1424
      6  CG        -2.6400   22.5510  -23.6380 C.2     9  ASP9        0.3668
      7  OD1       -3.0590   22.8600  -22.5010 O.co2   9  ASP9       -0.2456
      8  OD2       -3.2290   21.7100  -24.3430 O.co2   9  ASP9       -0.2456
      9  N         -2.1630   26.1560  -22.2080 N.am   10  LEU10      -0.1979
     10  CA        -3.3050   27.0310  -21.9690 C.3    10  LEU10       0.1596
     11  C         -3.2170   28.3850  -22.6700 C.2    10  LEU10       0.2287
     12  O         -4.2020   29.1210  -22.7370 O.2    10  LEU10      -0.2864
     13  CB        -3.5090   27.2130  -20.4730 C.3    10  LEU10       0.0297
     14  CG        -3.8890   25.9370  -19.7230 C.3    10  LEU10       0.0022
     15  CD1       -3.8950   26.2010  -18.2370 C.3    10  LEU10       0.0001
     16  CD2       -5.2330   25.4230  -20.2070 C.3    10  LEU10       0.0001
     17  N         -1.0330   22.8620  -28.7400 N.3    42  PRO42      -0.2102
     18  CA        -1.9800   22.0800  -27.9730 C.3    42  PRO42       0.1504
     19  C         -1.9580   20.6110  -28.3660 C.2    42  PRO42       0.2575
     20  O         -1.9050   20.2740  -29.5510 O.2    42  PRO42      -0.2718
     21  CB        -3.3160   22.7320  -28.3440 C.3    42  PRO42       0.0282
     22  CG        -2.9700   24.1350  -28.5200 C.3    42  PRO42       0.0208
     23  CD        -1.6840   24.0590  -29.3110 C.3    42  PRO42       0.0893
     24  N         -1.9440   19.7510  -27.3500 N.am   43  TRP43      -0.1977
     25  CA        -2.0830   18.3030  -27.4900 C.3    43  TRP43       0.1640
     26  C         -0.8470   17.6140  -28.0690 C.2    43  TRP43       0.2290
     27  O         -0.8500   16.4050  -28.2660 O.2    43  TRP43      -0.2864
     28  CB        -3.3820   17.9490  -28.2360 C.3    43  TRP43       0.0576
     29  CG        -4.4790   18.9260  -27.9280 C.ar   43  TRP43       0.0006
     30  CD1       -4.9870   19.2290  -26.6920 C.ar   43  TRP43       0.0946
     31  CD2       -5.1540   19.7780  -28.8570 C.ar   43  TRP43       0.0152
     32  NE1       -5.9480   20.1860  -26.8030 N.ar   43  TRP43      -0.2442
     33  CE2       -6.0700   20.5520  -28.1170 C.ar   43  TRP43       0.0810
     34  CE3       -5.0710   19.9680  -30.2450 C.ar   43  TRP43       0.0012
     35  CZ2       -6.9080   21.4900  -28.7170 C.ar   43  TRP43       0.0191
     36  CZ3       -5.8980   20.9030  -30.8340 C.ar   43  TRP43       0.0001
     37  CH2       -6.8110   21.6470  -30.0700 C.ar   43  TRP43       0.0015
     38  N         -3.9230   18.5630  -21.8830 N.3    70  TYR70      -0.1228
     39  CA        -4.9100   17.6260  -21.3890 C.3    70  TYR70       0.1721
     40  C         -6.0570   17.3800  -22.3820 C.2    70  TYR70       0.2437
     41  O         -7.2020   17.6600  -22.0500 O.2    70  TYR70      -0.2733
     42  CB        -5.4570   18.1150  -20.0310 C.3    70  TYR70       0.0547
     43  CG        -5.4620   17.0400  -18.9480 C.ar   70  TYR70      -0.0200
     44  CD1       -4.8290   17.2510  -17.7210 C.ar   70  TYR70      -0.0009
     45  CD2       -6.1110   15.8140  -19.1580 C.ar   70  TYR70      -0.0009
     46  CE1       -4.8340   16.2750  -16.7410 C.ar   70  TYR70       0.0417
     47  CE2       -6.1100   14.8200  -18.1770 C.ar   70  TYR70       0.0417
     48  CZ        -5.4670   15.0580  -16.9750 C.ar   70  TYR70       0.1957
     49  OH        -5.4720   14.0690  -16.0160 O.3    70  TYR70      -0.2866
     50  N         -5.7590   16.8180  -23.5860 N.am   71  PRO71      -0.2729
     51  CA        -6.8400   16.5970  -24.5530 C.3    71  PRO71       0.1401
     52  C         -7.9150   15.6250  -24.0660 C.2    71  PRO71       0.2269
     53  O         -9.0410   15.6750  -24.5600 O.2    71  PRO71      -0.2865
     54  CB        -6.1050   16.0330  -25.7780 C.3    71  PRO71       0.0296
     55  CG        -4.8410   15.4170  -25.2020 C.3    71  PRO71       0.0237
     56  CD        -4.4570   16.3680  -24.1270 C.3    71  PRO71       0.0939
     57  N         -9.1810   15.7120  -21.1660 N.3    73  THR73      -0.1218
     58  CA        -9.9500   16.4300  -20.1430 C.3    73  THR73       0.1862
     59  C        -11.4330   16.0350  -20.1340 C.2    73  THR73       0.2287
     60  O        -12.0600   15.9210  -21.1870 O.2    73  THR73      -0.2866
     61  CB        -9.8020   17.9680  -20.3400 C.3    73  THR73       0.1770
     62  OG1      -10.4840   18.6710  -19.2870 O.3    73  THR73      -0.2211
     63  CG2      -10.3400   18.4020  -21.7280 C.3    73  THR73       0.0375
     64  N        -13.8990   20.4810  -19.0570 N.3   148  THR148     -0.1203
     65  CA       -12.9780   20.9560  -20.0830 C.3   148  THR148      0.1994
     66  C        -11.6720   21.5420  -19.5340 C.2   148  THR148      0.2617
     67  O        -10.8590   22.0900  -20.2850 O.2   148  THR148     -0.2717
     68  CB       -13.6550   21.9980  -20.9890 C.3   148  THR148      0.1784
     69  OG1      -14.0580   23.1250  -20.1970 O.3   148  THR148     -0.2211
     70  CG2      -14.8590   21.3870  -21.6840 C.3   148  THR148      0.0376
     71  N        -11.4470   21.4140  -18.2330 N.am  149  PHE149     -0.1975
     72  CA       -10.3090   22.0890  -17.6460 C.3   149  PHE149      0.1639
     73  C         -9.5260   21.2270  -16.6850 C.2   149  PHE149      0.2290
     74  O         -9.1650   21.6730  -15.6030 O.2   149  PHE149     -0.2864
     75  CB       -10.7340   23.3920  -16.9710 C.3   149  PHE149      0.0560
     76  CG        -9.6690   24.4660  -17.0110 C.ar  149  PHE149     -0.0200
     77  CD1       -8.3530   24.1590  -17.4210 C.ar  149  PHE149     -0.0042
     78  CD2       -9.9650   25.7690  -16.6360 C.ar  149  PHE149     -0.0042
     79  CE1       -7.3700   25.1250  -17.4320 C.ar  149  PHE149     -0.0003
     80  CE2       -8.9720   26.7560  -16.6620 C.ar  149  PHE149     -0.0003
     81  CZ        -7.6810   26.4270  -17.0680 C.ar  149  PHE149     -0.0000
     82  N         -6.5150   20.4790  -16.9460 N.3   151  SER151     -0.1217
     83  CA        -5.2050   21.0880  -16.6930 C.3   151  SER151      0.1889
     84  C         -5.1740   21.8500  -15.3630 C.2   151  SER151      0.2288
     85  O         -4.1600   21.8470  -14.6640 O.2   151  SER151     -0.2866
     86  CB        -4.7980   22.0010  -17.8490 C.3   151  SER151      0.2089
     87  OG        -4.3310   21.2000  -18.9040 O.3   151  SER151     -0.2183
@<TRIPOS>BOND
     1    36    34   ar
     2    36    37   ar
     3    34    31   ar
     4    37    35   ar
     5    20    19    2
     6    23    17    1
     7    23    22    1
     8    31    33   ar
     9    31    29   ar
    10    17    18    1
    11    35    33   ar
    12    22    21    1
    13    19    18    1
    14    19    24   am
    15    21    18    1
    16    27    26    2
    17    28    29    1
    18    28    25    1
    19    33    32   ar
    20    26    25    1
    21    29    30   ar
    22    25    24    1
    23    32    30   ar
    24    54    55    1
    25    54    51    1
    26    55    56    1
    27    53    52    2
    28    51    52    1
    29    51    50    1
    30     8     6   ar
    31     4     3    2
    32     5     6    1
    33     5     2    1
    34    56    50    1
    35     6     7   ar
    36    50    40   am
    37     2     3    1
    38     2     1    1
    39     3     9   am
    40    12    11    2
    41    11    10    1
    42    40    41    2
    43    40    39    1
    44     9    10    1
    45    10    13    1
    46    38    39    1
    47    63    61    1
    48    70    68    1
    49    39    42    1
    50    60    59    2
    51    57    58    1
    52    68    69    1
    53    68    65    1
    54    13    14    1
    55    61    58    1
    56    61    62    1
    57    67    66    2
    58    16    14    1
    59    58    59    1
    60    65    66    1
    61    65    64    1
    62    42    43    1
    63    14    15    1
    64    66    71   am
    65    45    43   ar
    66    45    47   ar
    67    43    44   ar
    68    87    86    1
    69    71    72    1
    70    47    48   ar
    71    86    83    1
    72    44    46   ar
    73    72    75    1
    74    72    73    1
    75    79    77   ar
    76    79    81   ar
    77    77    76   ar
    78    81    80   ar
    79    76    75    1
    80    76    78   ar
    81    48    46   ar
    82    48    49    1
    83    82    83    1
    84    83    84    1
    85    73    74    2
    86    80    78   ar
    87    84    85    2
