@<TRIPOS>MOLECULE
tmp/2cbzA00.pdb
 85 81 0 0 0
SMALL
GASTEIGER

@<TRIPOS>ATOM
      1  N        -12.8840   51.5760   -5.7240 N.3    12  TRP12      -0.1241
      2  CA       -12.2270   50.2810   -5.6650 C.3    12  TRP12       0.1605
      3  C        -11.8640   49.7900   -7.0730 C.2    12  TRP12       0.2264
      4  O        -11.0760   48.8620   -7.2160 O.2    12  TRP12      -0.2867
      5  CB       -13.1280   49.2410   -4.9980 C.3    12  TRP12       0.0550
      6  CG       -13.3520   49.4430   -3.5260 C.ar   12  TRP12       0.0003
      7  CD1      -14.5340   49.7680   -2.9060 C.ar   12  TRP12       0.0946
      8  CD2      -12.3810   49.3010   -2.4800 C.ar   12  TRP12       0.0152
      9  NE1      -14.3540   49.8410   -1.5380 N.ar   12  TRP12      -0.2442
     10  CE2      -13.0410   49.5640   -1.2520 C.ar   12  TRP12       0.0810
     11  CE3      -11.0180   48.9790   -2.4580 C.ar   12  TRP12       0.0012
     12  CZ2      -12.3810   49.5100   -0.0200 C.ar   12  TRP12       0.0191
     13  CZ3      -10.3630   48.9330   -1.2310 C.ar   12  TRP12       0.0001
     14  CH2      -11.0470   49.1920   -0.0300 C.ar   12  TRP12       0.0015
     15  N        -17.2930   54.0880   -5.2930 N.3    19  THR19      -0.1218
     16  CA       -18.0390   53.6060   -4.1380 C.3    19  THR19       0.1862
     17  C        -18.4340   54.7440   -3.1970 C.2    19  THR19       0.2287
     18  O        -19.5060   54.6980   -2.5790 O.2    19  THR19      -0.2866
     19  CB       -17.2010   52.5310   -3.4060 C.3    19  THR19       0.1770
     20  OG1      -17.2030   51.3410   -4.2040 O.3    19  THR19      -0.2211
     21  CG2      -17.7200   52.2320   -1.9930 C.3    19  THR19       0.0375
     22  N        -26.7090   48.5510    5.9880 N.3    39  VAL39      -0.1231
     23  CA       -25.7480   47.5800    5.4650 C.3    39  VAL39       0.1692
     24  C        -25.4140   47.9020    4.0000 C.2    39  VAL39       0.2593
     25  O        -26.3090   48.1120    3.1780 O.2    39  VAL39      -0.2718
     26  CB       -26.2860   46.1280    5.6090 C.3    39  VAL39       0.0266
     27  CG1      -25.4960   45.1550    4.7260 C.3    39  VAL39       0.0020
     28  CG2      -26.2640   45.7090    7.0670 C.3    39  VAL39       0.0020
     29  N        -24.1210   47.9930    3.7000 N.am   40  GLY40      -0.1942
     30  CA       -23.6650   48.1910    2.3280 C.3    40  GLY40       0.2014
     31  C        -23.5650   49.6390    1.8890 C.2    40  GLY40       0.2639
     32  O        -23.2780   49.8950    0.7210 O.2    40  GLY40      -0.2714
     33  N        -23.7750   50.5860    2.8150 N.am   41  CYS41      -0.1953
     34  CA       -23.7900   52.0160    2.4670 C.3    41  CYS41       0.1843
     35  C        -22.3970   52.6320    2.2880 C.2    41  CYS41       0.2626
     36  O        -22.2770   53.7960    1.8520 O.2    41  CYS41      -0.2714
     37  CB       -24.5670   52.8290    3.5090 C.3    41  CYS41       0.0997
     38  SG       -23.7860   52.8330    5.1400 S.3    41  CYS41      -0.0797
     39  N        -21.3560   51.8730    2.6290 N.am   42  GLY42      -0.1940
     40  CA       -19.9710   52.3160    2.4170 C.3    42  GLY42       0.2014
     41  C        -19.1710   52.6770    3.6620 C.2    42  GLY42       0.2639
     42  O        -18.1630   53.3860    3.5640 O.2    42  GLY42      -0.2714
     43  N        -19.6110   52.2170    4.8360 N.am   43  LYS43      -0.1963
     44  CA       -18.8980   52.5370    6.0910 C.3    43  LYS43       0.1728
     45  C        -17.4560   52.0180    6.1370 C.2    43  LYS43       0.2617
     46  O        -16.5250   52.7570    6.4720 O.2    43  LYS43      -0.2715
     47  CB       -19.6800   52.0090    7.2970 C.3    43  LYS43       0.0311
     48  CG       -21.1320   52.4910    7.3410 C.3    43  LYS43       0.0038
     49  CD       -21.9450   51.8960    8.5020 C.3    43  LYS43       0.0206
     50  CE       -22.1430   50.3930    8.3880 C.3    43  LYS43       0.1093
     51  NZ       -23.0210   50.0030    7.2450 N.3    43  LYS43      -0.1314
     52  N        -17.2750   50.7390    5.8320 N.am   44  SER44      -0.1936
     53  CA       -15.9410   50.1600    5.8500 C.3    44  SER44       0.2055
     54  C        -15.0690   50.8360    4.8070 C.2    44  SER44       0.2643
     55  O        -13.8750   51.0760    5.0370 O.2    44  SER44      -0.2714
     56  CB       -16.0070   48.6530    5.6100 C.3    44  SER44       0.2130
     57  OG       -16.6580   48.0140    6.6950 O.3    44  SER44      -0.2179
     58  N        -15.6700   51.1450    3.6560 N.am   45  SER45      -0.1949
     59  CA       -14.9330   51.8160    2.5900 C.3    45  SER45       0.1924
     60  C        -14.4520   53.1900    3.0290 C.2    45  SER45       0.2314
     61  O        -13.3420   53.6010    2.6740 O.2    45  SER45      -0.2863
     62  CB       -15.7770   51.9210    1.3210 C.3    45  SER45       0.2116
     63  OG       -15.9850   50.6440    0.7530 O.3    45  SER45      -0.2180
     64  N        -11.3670   52.5730    4.8460 N.3    48  SER48      -0.1217
     65  CA       -10.3130   52.2320    3.8780 C.3    48  SER48       0.1889
     66  C         -9.7600   53.4740    3.1750 C.2    48  SER48       0.2288
     67  O         -8.5430   53.5930    2.9570 O.2    48  SER48      -0.2866
     68  CB       -10.8360   51.2600    2.8250 C.3    48  SER48       0.2089
     69  OG       -11.2970   50.0530    3.4120 O.3    48  SER48      -0.2183
     70  N        -13.2540   45.1070   10.4060 N.3    72  GLN72      -0.1245
     71  CA       -14.5710   44.5570   10.7040 C.3    72  GLN72       0.1566
     72  C        -14.5270   43.0830   11.0890 C.2    72  GLN72       0.2260
     73  O        -15.3250   42.6510   11.9250 O.2    72  GLN72      -0.2867
     74  CB       -15.5340   44.7850    9.5430 C.3    72  GLN72       0.0367
     75  CG       -16.9820   44.4940    9.9090 C.3    72  GLN72       0.0905
     76  CD       -17.9720   45.0370    8.9020 C.2    72  GLN72       0.2608
     77  OE1      -17.5940   45.6440    7.8780 O.2    72  GLN72      -0.2717
     78  NE2      -19.2550   44.8240    9.1800 N.am   72  GLN72      -0.0878
     79  N        -17.3240   53.1950   13.4670 N.3   184  VAL184     -0.1245
     80  CA       -18.3740   52.5770   12.6580 C.3   184  VAL184      0.1561
     81  C        -19.0980   51.5860   13.5640 C.2   184  VAL184      0.2260
     82  O        -18.4560   50.7940   14.2540 O.2   184  VAL184     -0.2867
     83  CB       -17.7850   51.8230   11.4390 C.3   184  VAL184      0.0252
     84  CG1      -18.8340   50.9430   10.7820 C.3   184  VAL184      0.0019
     85  CG2      -17.2060   52.8030   10.4390 C.3   184  VAL184      0.0019
@<TRIPOS>BOND
     1     4     3    2
     2     3     2    1
     3     1     2    1
     4     2     5    1
     5    15    16    1
     6     5     6    1
     7    20    19    1
     8    16    19    1
     9    16    17    1
    10     6     7   ar
    11     6     8   ar
    12    19    21    1
    13    17    18    2
    14     7     9   ar
    15     8    11   ar
    16     8    10   ar
    17    11    13   ar
    18     9    10   ar
    19    10    12   ar
    20    13    14   ar
    21    14    12   ar
    22    32    31    2
    23    63    62    1
    24    62    59    1
    25    36    35    2
    26    31    30    1
    27    31    33   am
    28    35    34    1
    29    35    39   am
    30    30    29    1
    31    40    39    1
    32    40    41    1
    33    34    33    1
    34    34    37    1
    35    59    60    1
    36    59    58    1
    37    61    60    2
    38    68    69    1
    39    68    65    1
    40    67    66    2
    41    66    65    1
    42    25    24    2
    43    37    38    1
    44    42    41    2
    45    58    54   am
    46    41    43   am
    47    29    24   am
    48    65    64    1
    49    24    23    1
    50    27    26    1
    51    54    55    2
    52    54    53    1
    53    43    44    1
    54    23    26    1
    55    23    22    1
    56    26    28    1
    57    56    53    1
    58    56    57    1
    59    52    53    1
    60    52    45   am
    61    44    45    1
    62    44    47    1
    63    45    46    2
    64    51    50    1
    65    47    48    1
    66    48    49    1
    67    77    76    2
    68    50    49    1
    69    76    78   am
    70    76    75    1
    71    74    75    1
    72    74    71    1
    73    70    71    1
    74    85    83    1
    75    71    72    1
    76    84    83    1
    77    72    73    2
    78    83    80    1
    79    80    79    1
    80    80    81    1
    81    81    82    2
