@<TRIPOS>MOLECULE
tmp/2cc3B01.pdb
 92 86 0 0 0
SMALL
GASTEIGER

@<TRIPOS>ATOM
      1  N         25.2550    7.4560   16.7140 N.3    14  SER14      -0.1202
      2  CA        24.4400    6.3840   17.3440 C.3    14  SER14       0.2020
      3  C         23.2880    6.9630   18.2020 C.2    14  SER14       0.2618
      4  O         22.1360    6.5010   18.1050 O.2    14  SER14      -0.2717
      5  CB        25.3350    5.5010   18.2380 C.3    14  SER14       0.2103
      6  OG        26.3120    4.7500   17.5220 O.3    14  SER14      -0.2182
      7  N         23.6060    7.9640   19.0220 N.am   15  LEU15      -0.1979
      8  CA        22.6060    8.6690   19.8810 C.3    15  LEU15       0.1596
      9  C         21.5540    9.4240   19.0910 C.2    15  LEU15       0.2287
     10  O         20.3660    9.4170   19.4590 O.2    15  LEU15      -0.2864
     11  CB        23.2900    9.6260   20.8520 C.3    15  LEU15       0.0297
     12  CG        24.2420    8.9630   21.8530 C.3    15  LEU15       0.0022
     13  CD1       24.9080   10.0090   22.7340 C.3    15  LEU15       0.0001
     14  CD2       23.4960    7.8990   22.6840 C.3    15  LEU15       0.0001
     15  N         20.7920    8.6490   15.7880 N.3    17  GLU17      -0.1231
     16  CA        19.9730    7.5300   15.2890 C.3    17  GLU17       0.1699
     17  C         18.9660    7.0880   16.3600 C.2    17  GLU17       0.2592
     18  O         17.7700    6.9040   16.0540 O.2    17  GLU17      -0.2718
     19  CB        20.8270    6.3450   14.8150 C.3    17  GLU17       0.0402
     20  CG        20.1080    5.4890   13.7690 C.3    17  GLU17       0.1161
     21  CD        20.5520    4.0270   13.7590 C.2    17  GLU17       0.3649
     22  OE1       21.6960    3.7250   14.1750 O.co2  17  GLU17      -0.2457
     23  OE2       19.7650    3.1600   13.3160 O.co2  17  GLU17      -0.2457
     24  N         19.4430    6.9430   17.6020 N.am   18  TYR18      -0.1976
     25  CA        18.5760    6.5690   18.7370 C.3    18  TYR18       0.1639
     26  C         17.3790    7.5350   18.8290 C.2    18  TYR18       0.2290
     27  O         16.2080    7.1120   18.7290 O.2    18  TYR18      -0.2864
     28  CB        19.3680    6.4800   20.0700 C.3    18  TYR18       0.0560
     29  CG        18.4960    5.9680   21.2110 C.ar   18  TYR18      -0.0198
     30  CD1       18.2430    4.5900   21.3700 C.ar   18  TYR18      -0.0009
     31  CD2       17.8750    6.8670   22.0930 C.ar   18  TYR18      -0.0009
     32  CE1       17.3850    4.1230   22.4150 C.ar   18  TYR18       0.0417
     33  CE2       17.0660    6.4350   23.1150 C.ar   18  TYR18       0.0417
     34  CZ        16.8060    5.0700   23.2780 C.ar   18  TYR18       0.1957
     35  OH        15.9860    4.6840   24.3240 O.3    18  TYR18      -0.2866
     36  N         15.0730    7.3520   15.6710 N.3    21  LEU21      -0.1245
     37  CA        14.2610    6.1330   15.6720 C.3    21  LEU21       0.1561
     38  C         13.1270    6.1870   16.6880 C.2    21  LEU21       0.2260
     39  O         11.9910    5.7270   16.4570 O.2    21  LEU21      -0.2867
     40  CB        15.1500    4.8990   15.9400 C.3    21  LEU21       0.0270
     41  CG        16.0890    4.4190   14.8140 C.3    21  LEU21       0.0019
     42  CD1       17.0930    3.3960   15.3340 C.3    21  LEU21       0.0001
     43  CD2       15.2940    3.8060   13.6830 C.3    21  LEU21       0.0001
     44  N         15.2190   -1.8190   17.2270 N.3    36  LEU36      -0.1245
     45  CA        16.4770   -1.0820   17.4710 C.3    36  LEU36       0.1561
     46  C         16.4040   -0.2160   18.7160 C.2    36  LEU36       0.2260
     47  O         17.3270   -0.2080   19.5360 O.2    36  LEU36      -0.2867
     48  CB        16.8750   -0.2160   16.2680 C.3    36  LEU36       0.0270
     49  CG        17.3360   -0.8380   14.9410 C.3    36  LEU36       0.0019
     50  CD1       17.4510    0.2260   13.8550 C.3    36  LEU36       0.0001
     51  CD2       18.6650   -1.5460   15.0900 C.3    36  LEU36       0.0001
     52  N         18.8250   -1.1800   22.3510 N.3    40  PHE40      -0.1241
     53  CA        19.9400   -0.4010   22.7980 C.3    40  PHE40       0.1605
     54  C         19.6190    0.5290   23.9730 C.2    40  PHE40       0.2264
     55  O         20.3680    1.4630   24.2700 O.2    40  PHE40      -0.2867
     56  CB        20.6090    0.2070   21.5860 C.3    40  PHE40       0.0534
     57  CG        20.9600   -0.8310   20.5340 C.ar   40  PHE40      -0.0203
     58  CD1       20.4370   -0.7450   19.2340 C.ar   40  PHE40      -0.0042
     59  CD2       21.7670   -1.9350   20.8710 C.ar   40  PHE40      -0.0042
     60  CE1       20.7550   -1.7100   18.2730 C.ar   40  PHE40      -0.0003
     61  CE2       22.0870   -2.8740   19.9360 C.ar   40  PHE40      -0.0003
     62  CZ        21.5790   -2.7710   18.6190 C.ar   40  PHE40      -0.0000
     63  N         24.5570   -3.1120   14.1240 N.3   125  THR125     -0.1203
     64  CA        23.7300   -1.8970   14.0380 C.3   125  THR125      0.1994
     65  C         24.1380   -0.8960   15.1190 C.2   125  THR125      0.2617
     66  O         23.7040    0.2660   15.1250 O.2   125  THR125     -0.2717
     67  CB        22.2430   -2.2460   14.1640 C.3   125  THR125      0.1784
     68  OG1       22.0410   -3.0230   15.3440 O.3   125  THR125     -0.2211
     69  CG2       21.7940   -3.0820   12.9920 C.3   125  THR125      0.0376
     70  N         25.0220   -1.3550   16.0010 N.am  126  ASN126     -0.1974
     71  CA        25.5310   -0.6060   17.1340 C.3   126  ASN126      0.1688
     72  C         27.0220   -0.9880   17.2290 C.2   126  ASN126      0.2292
     73  O         27.4260   -1.7320   18.1200 O.2   126  ASN126     -0.2864
     74  CB        24.7370   -1.0320   18.3770 C.3   126  ASN126      0.1181
     75  CG        25.0390   -0.2110   19.6070 C.2   126  ASN126      0.2629
     76  OD1       25.7400    0.8070   19.5540 O.2   126  ASN126     -0.2716
     77  ND2       24.5130   -0.6570   20.7490 N.am  126  ASN126     -0.0877
     78  N         26.9340    1.0650   22.4160 N.3   130  LEU130     -0.1245
     79  CA        26.2600    2.0680   23.2160 C.3   130  LEU130      0.1561
     80  C         24.9400    1.5390   23.7530 C.2   130  LEU130      0.2260
     81  O         24.2100    0.8290   23.0600 O.2   130  LEU130     -0.2867
     82  CB        26.0440    3.3440   22.4000 C.3   130  LEU130      0.0270
     83  CG        27.1630    4.3960   22.3130 C.3   130  LEU130      0.0019
     84  CD1       28.1070    4.1850   21.0990 C.3   130  LEU130      0.0001
     85  CD2       26.5320    5.8190   22.2720 C.3   130  LEU130      0.0001
     86  N         21.6360    3.2200   26.0260 N.3   132  VAL132     -0.1245
     87  CA        20.9920    4.3490   26.7060 C.3   132  VAL132      0.1561
     88  C         20.4170    3.9280   28.0740 C.2   132  VAL132      0.2260
     89  O         19.4810    3.1530   28.1450 O.2   132  VAL132     -0.2867
     90  CB        19.8910    4.9540   25.7980 C.3   132  VAL132      0.0252
     91  CG1       19.0520    6.0500   26.5180 C.3   132  VAL132      0.0019
     92  CG2       20.5180    5.4510   24.4920 C.3   132  VAL132      0.0019
@<TRIPOS>BOND
     1    69    67    1
     2    23    21   ar
     3    43    41    1
     4    21    20    1
     5    21    22   ar
     6    20    19    1
     7    50    49    1
     8    64    63    1
     9    64    67    1
    10    64    65    1
    11    67    68    1
    12    41    42    1
    13    41    40    1
    14    19    16    1
    15    49    51    1
    16    49    48    1
    17    65    66    2
    18    65    70   am
    19    16    15    1
    20    16    17    1
    21    36    37    1
    22    37    40    1
    23    37    38    1
    24    70    71    1
    25    18    17    2
    26    48    45    1
    27    17    24   am
    28    39    38    2
    29     1     2    1
    30    71    72    1
    31    71    74    1
    32    44    45    1
    33    72    73    2
    34     2     3    1
    35     2     5    1
    36    45    46    1
    37     6     5    1
    38    24    25    1
    39     4     3    2
    40     3     7   am
    41    60    62   ar
    42    60    58   ar
    43    74    75    1
    44    62    61   ar
    45    46    47    2
    46    27    26    2
    47    25    26    1
    48    25    28    1
    49     7     8    1
    50     9    10    2
    51     9     8    1
    52    58    57   ar
    53    76    75    2
    54    75    77   am
    55     8    11    1
    56    61    59   ar
    57    28    29    1
    58    57    59   ar
    59    57    56    1
    60    11    12    1
    61    84    83    1
    62    29    30   ar
    63    29    31   ar
    64    30    32   ar
    65    56    53    1
    66    12    14    1
    67    12    13    1
    68    31    33   ar
    69    85    83    1
    70    83    82    1
    71    52    53    1
    72    82    79    1
    73    32    34   ar
    74    78    79    1
    75    53    54    1
    76    81    80    2
    77    33    34   ar
    78    79    80    1
    79    34    35    1
    80    54    55    2
    81    92    90    1
    82    90    91    1
    83    90    87    1
    84    86    87    1
    85    87    88    1
    86    88    89    2
