@<TRIPOS>MOLECULE
tmp/2ccgA00.pdb
 138 130 0 0 0
SMALL
GASTEIGER

@<TRIPOS>ATOM
      1  N        -13.9000    1.4330  121.9420 N.3    10  GLU10      -0.1245
      2  CA       -12.6460    1.4580  122.6720 C.3    10  GLU10       0.1567
      3  C        -12.9580    1.1070  124.1320 C.2    10  GLU10       0.2260
      4  O        -14.0470    1.4140  124.6400 O.2    10  GLU10      -0.2867
      5  CB       -12.0230    2.8570  122.5960 C.3    10  GLU10       0.0388
      6  CG       -12.1490    3.5360  121.2300 C.3    10  GLU10       0.1160
      7  CD       -11.1780    2.9910  120.1960 C.2    10  GLU10       0.3649
      8  OE1       -9.9550    3.0730  120.4310 O.co2  10  GLU10      -0.2457
      9  OE2      -11.6360    2.4800  119.1510 O.co2  10  GLU10      -0.2457
     10  N        -11.8830   -5.9040  124.0490 N.3    14  LYS14      -0.1231
     11  CA       -11.9340   -6.8030  122.9030 C.3    14  LYS14       0.1693
     12  C        -10.6710   -7.6220  122.6440 C.2    14  LYS14       0.2592
     13  O        -10.7270   -8.8390  122.5270 O.2    14  LYS14      -0.2718
     14  CB       -12.2970   -6.0120  121.6430 C.3    14  LYS14       0.0285
     15  CG       -12.3460   -6.8460  120.3730 C.3    14  LYS14       0.0035
     16  CD       -12.9320   -6.0610  119.2000 C.3    14  LYS14       0.0206
     17  CE       -12.1820   -4.7580  118.9650 C.3    14  LYS14       0.1093
     18  NZ       -10.7000   -4.9630  118.8920 N.3    14  LYS14      -0.1314
     19  N         -9.5280   -6.9640  122.5550 N.am   15  THR15      -0.1953
     20  CA        -8.3000   -7.6890  122.2810 C.3    15  THR15       0.1897
     21  C         -7.9650   -8.7800  123.2900 C.2    15  THR15       0.2313
     22  O         -7.6080   -9.8920  122.9050 O.2    15  THR15      -0.2863
     23  CB        -7.1190   -6.7240  122.1370 C.3    15  THR15       0.1794
     24  OG1       -7.2900   -5.9780  120.9250 O.3    15  THR15      -0.2208
     25  CG2       -5.7880   -7.4880  122.0840 C.3    15  THR15       0.0378
     26  N         -6.5030  -10.5790  112.6610 N.3    35  ARG35      -0.1231
     27  CA        -6.8840   -9.1690  112.7320 C.3    35  ARG35       0.1694
     28  C         -6.3670   -8.5420  111.4490 C.2    35  ARG35       0.2591
     29  O         -5.3670   -9.0050  110.9270 O.2    35  ARG35      -0.2718
     30  CB        -6.1930   -8.5310  113.9390 C.3    35  ARG35       0.0321
     31  CG        -6.2170   -7.0150  113.9790 C.3    35  ARG35       0.0489
     32  CD        -5.5280   -6.5020  115.2410 C.3    35  ARG35       0.2205
     33  NE        -5.6500   -5.0520  115.3880 N.pl3  35  ARG35      -0.0865
     34  CZ        -5.0180   -4.1630  114.6280 C.cat  35  ARG35       0.5346
     35  NH1       -4.2010   -4.5650  113.6590 N.pl3  35  ARG35       0.1354
     36  NH2       -5.2270   -2.8680  114.8160 N.pl3  35  ARG35       0.1354
     37  N         -7.0350   -7.5120  110.9350 N.am   36  GLU36      -0.1979
     38  CA        -6.5850   -6.8510  109.7080 C.3    36  GLU36       0.1602
     39  C         -5.4310   -5.8860  110.0180 C.2    36  GLU36       0.2287
     40  O         -5.4500   -5.2020  111.0470 O.2    36  GLU36      -0.2864
     41  CB        -7.7490   -6.0810  109.0690 C.3    36  GLU36       0.0415
     42  CG        -8.8750   -6.9770  108.5500 C.3    36  GLU36       0.1163
     43  CD       -10.1960   -6.2390  108.3840 C.2    36  GLU36       0.3649
     44  OE1      -11.1560   -6.8390  107.8530 O.co2  36  GLU36      -0.2457
     45  OE2      -10.2780   -5.0620  108.7960 O.co2  36  GLU36      -0.2457
     46  N         -2.3100   -0.3940  105.5170 N.3    47  ARG47      -0.1245
     47  CA        -2.6410   -0.0030  106.8820 C.3    47  ARG47       0.1563
     48  C         -1.6360    1.0110  107.4440 C.2    47  ARG47       0.2260
     49  O         -2.0190    1.9280  108.1710 O.2    47  ARG47      -0.2867
     50  CB        -2.7050   -1.2490  107.7750 C.3    47  ARG47       0.0307
     51  CG        -3.2160   -1.0160  109.1980 C.3    47  ARG47       0.0489
     52  CD        -4.6280   -0.4290  109.2230 C.3    47  ARG47       0.2205
     53  NE        -5.2690   -0.5680  110.5320 N.pl3  47  ARG47      -0.0865
     54  CZ        -6.0230   -1.6050  110.8970 C.cat  47  ARG47       0.5346
     55  NH1       -6.2470   -2.6070  110.0520 N.pl3  47  ARG47       0.1354
     56  NH2       -6.5610   -1.6390  112.1110 N.pl3  47  ARG47       0.1354
     57  N         -2.6090    4.4710  110.1180 N.3    51  LEU51      -0.1245
     58  CA        -2.3240    4.7680  111.5130 C.3    51  LEU51       0.1561
     59  C         -1.3660    5.9470  111.6440 C.2    51  LEU51       0.2260
     60  O         -1.4680    6.7200  112.5940 O.2    51  LEU51      -0.2867
     61  CB        -1.7820    3.5210  112.2230 C.3    51  LEU51       0.0270
     62  CG        -2.8300    2.4030  112.3380 C.3    51  LEU51       0.0019
     63  CD1       -2.2540    1.2130  113.0880 C.3    51  LEU51       0.0001
     64  CD2       -4.0670    2.9370  113.0530 C.3    51  LEU51       0.0001
     65  N         -9.1210    1.3470  104.5290 N.3    65  PHE65      -0.1241
     66  CA        -9.5650    0.2790  105.4170 C.3    65  PHE65       0.1605
     67  C        -10.2210   -0.8030  104.5610 C.2    65  PHE65       0.2264
     68  O        -10.0270   -1.9970  104.8000 O.2    65  PHE65      -0.2867
     69  CB       -10.5720    0.7990  106.4530 C.3    65  PHE65       0.0534
     70  CG        -9.9350    1.3650  107.6930 C.ar   65  PHE65      -0.0203
     71  CD1       -9.1130    0.5720  108.4910 C.ar   65  PHE65      -0.0042
     72  CD2      -10.1410    2.6970  108.0550 C.ar   65  PHE65      -0.0042
     73  CE1       -8.5090    1.0920  109.6440 C.ar   65  PHE65      -0.0003
     74  CE2       -9.5430    3.2280  109.2050 C.ar   65  PHE65      -0.0003
     75  CZ        -8.7190    2.4220  109.9980 C.ar   65  PHE65      -0.0000
     76  N         -8.9240   -4.5560  104.0380 N.3    69  ARG69      -0.1245
     77  CA        -9.9090   -5.5840  104.3420 C.3    69  ARG69       0.1563
     78  C         -9.9150   -6.6330  103.2190 C.2    69  ARG69       0.2260
     79  O         -9.8900   -7.8440  103.4740 O.2    69  ARG69      -0.2867
     80  CB       -11.2860   -4.9190  104.4760 C.3    69  ARG69       0.0307
     81  CG       -12.4810   -5.8470  104.5410 C.3    69  ARG69       0.0489
     82  CD       -13.6150   -5.2190  105.3950 C.3    69  ARG69       0.2205
     83  NE       -13.0940   -4.7700  106.6860 N.pl3  69  ARG69      -0.0865
     84  CZ       -13.1650   -3.5160  107.1370 C.cat  69  ARG69       0.5346
     85  NH1      -13.7570   -2.5730  106.4190 N.pl3  69  ARG69       0.1354
     86  NH2      -12.5890   -3.1860  108.2840 N.pl3  69  ARG69       0.1354
     87  N        -10.5500  -10.0630  114.6480 N.3    90  ASP90      -0.1225
     88  CA       -10.6450   -8.8400  115.4440 C.3    90  ASP90       0.1805
     89  C        -10.9940   -7.6740  114.5020 C.2    90  ASP90       0.2597
     90  O        -10.1200   -7.1600  113.8060 O.2    90  ASP90      -0.2718
     91  CB        -9.2890   -8.5980  116.1220 C.3    90  ASP90       0.1424
     92  CG        -9.3360   -7.5260  117.2050 C.2    90  ASP90       0.3668
     93  OD1      -10.3810   -6.8650  117.3830 O.co2  90  ASP90      -0.2456
     94  OD2       -8.3020   -7.3460  117.8750 O.co2  90  ASP90      -0.2456
     95  N        -12.2660   -7.2710  114.4830 N.am   91  ARG91      -0.1979
     96  CA       -12.7720   -6.1730  113.6290 C.3    91  ARG91       0.1597
     97  C        -12.9270   -6.5010  112.1350 C.2    91  ARG91       0.2287
     98  O        -12.0420   -7.1050  111.5010 O.2    91  ARG91      -0.2864
     99  CB       -11.9070   -4.9120  113.7430 C.3    91  ARG91       0.0334
    100  CG       -11.9850   -4.2020  115.0630 C.3    91  ARG91       0.0492
    101  CD       -11.2550   -2.8370  114.9910 C.3    91  ARG91       0.2205
    102  NE       -11.2060   -2.2130  116.3190 N.pl3  91  ARG91      -0.0865
    103  CZ       -12.2680   -1.7720  116.9830 C.cat  91  ARG91       0.5346
    104  NH1      -13.4810   -1.8660  116.4440 N.pl3  91  ARG91       0.1354
    105  NH2      -12.1250   -1.2650  118.2000 N.pl3  91  ARG91       0.1354
    106  N        -16.7760   -2.4360  111.8460 N.3    95  SER95      -0.1202
    107  CA       -15.9000   -1.4020  112.3880 C.3    95  SER95       0.2020
    108  C        -15.9550   -0.2040  111.4550 C.2    95  SER95       0.2619
    109  O        -16.0870    0.9320  111.9090 O.2    95  SER95      -0.2717
    110  CB       -14.4440   -1.8860  112.4850 C.3    95  SER95       0.2103
    111  OG       -14.2140   -2.6830  113.6330 O.3    95  SER95      -0.2182
    112  N        -15.8540   -0.4560  110.1490 N.am   96  SER96      -0.1951
    113  CA       -15.8960    0.6360  109.1820 C.3    96  SER96       0.1924
    114  C        -17.2390    1.3490  109.2370 C.2    96  SER96       0.2314
    115  O        -17.2880    2.5780  109.2370 O.2    96  SER96      -0.2863
    116  CB       -15.6300    0.1380  107.7550 C.3    96  SER96       0.2116
    117  OG       -14.2420   -0.0140  107.5040 O.3    96  SER96      -0.2180
    118  N        -17.2160    3.3690  112.6810 N.3    99  TYR99      -0.1227
    119  CA       -16.2260    4.4380  112.7120 C.3    99  TYR99       0.1736
    120  C        -16.2570    5.4230  111.5430 C.2    99  TYR99       0.2595
    121  O        -16.4420    6.6300  111.7460 O.2    99  TYR99      -0.2718
    122  CB       -14.8280    3.8320  112.8310 C.3    99  TYR99       0.0548
    123  CG       -14.5670    3.2000  114.1760 C.ar   99  TYR99      -0.0200
    124  CD1      -15.0820    1.9430  114.5030 C.ar   99  TYR99      -0.0009
    125  CD2      -13.8290    3.8780  115.1390 C.ar   99  TYR99      -0.0009
    126  CE1      -14.8610    1.3810  115.7710 C.ar   99  TYR99       0.0417
    127  CE2      -13.6060    3.3330  116.3960 C.ar   99  TYR99       0.0417
    128  CZ       -14.1180    2.0890  116.7110 C.ar   99  TYR99       0.1957
    129  OH       -13.8700    1.5800  117.9680 O.3    99  TYR99      -0.2866
    130  N        -16.0610    4.9180  110.3250 N.am  100  GLN100     -0.1979
    131  CA       -16.0540    5.7820  109.1430 C.3   100  GLN100      0.1601
    132  C        -17.4500    6.2260  108.7600 C.2   100  GLN100      0.2287
    133  O        -17.6640    7.3860  108.4220 O.2   100  GLN100     -0.2864
    134  CB       -15.4090    5.0770  107.9400 C.3   100  GLN100      0.0394
    135  CG       -13.8920    5.0190  107.9760 C.3   100  GLN100      0.0908
    136  CD       -13.3910    4.1590  109.1060 C.2   100  GLN100      0.2608
    137  OE1      -13.6860    2.9670  109.1630 O.2   100  GLN100     -0.2717
    138  NE2      -12.6350    4.7570  110.0190 N.am  100  GLN100     -0.0878
@<TRIPOS>BOND
     1    78    79    2
     2    78    77    1
     3    76    77    1
     4    77    80    1
     5    80    81    1
     6    65    66    1
     7    81    82    1
     8    67    68    2
     9    67    66    1
    10    82    83    1
    11    66    69    1
    12    46    47    1
    13    85    84    1
    14    69    70    1
    15    83    84    2
    16    47    48    1
    17    47    50    1
    18    84    86    1
    19    48    49    2
    20   117   116    1
    21    70    72   ar
    22    70    71   ar
    23   116   113    1
    24    50    51    1
    25    44    43   ar
    26   134   135    1
    27   134   131    1
    28   135   136    1
    29    72    74   ar
    30    43    42    1
    31    43    45   ar
    32   133   132    2
    33    71    73   ar
    34    42    41    1
    35   132   131    1
    36    41    38    1
    37   136   137    2
    38   136   138   am
    39   131   130    1
    40   113   114    1
    41   113   112    1
    42    51    52    1
    43    74    75   ar
    44    52    53    1
    45   114   115    2
    46    73    75   ar
    47    38    39    1
    48    38    37    1
    49    39    40    2
    50    55    54    1
    51    57    58    1
    52   112   108   am
    53   130   120   am
    54    53    54    2
    55    54    56    1
    56    29    28    2
    57    37    28   am
    58    28    27    1
    59   108   109    2
    60   108   107    1
    61    98    97    2
    62    58    59    1
    63    58    61    1
    64   120   121    2
    65   120   119    1
    66    59    60    2
    67   106   107    1
    68    97    96    1
    69    61    62    1
    70    62    64    1
    71    62    63    1
    72   107   110    1
    73   110   111    1
    74    26    27    1
    75   118   119    1
    76   119   122    1
    77    27    30    1
    78   122   123    1
    79    96    99    1
    80    96    95    1
    81    35    34    1
    82    99   100    1
    83    90    89    2
    84    30    31    1
    85    31    32    1
    86   123   124   ar
    87   123   125   ar
    88    95    89   am
    89    89    88    1
    90   124   126   ar
    91    34    36    1
    92    34    33    2
    93    87    88    1
    94   101   100    1
    95   101   102    1
    96   125   127   ar
    97    32    33    1
    98    88    91    1
    99   126   128   ar
   100    91    92    1
   101   102   103    2
   102   127   128   ar
   103   104   103    1
   104   128   129    1
   105   103   105    1
   106    92    93   ar
   107    92    94   ar
   108    18    17    1
   109    17    16    1
   110     9     7   ar
   111    16    15    1
   112     7     8   ar
   113     7     6    1
   114    15    14    1
   115    24    23    1
   116     6     5    1
   117    14    11    1
   118     1     2    1
   119    25    23    1
   120    23    20    1
   121    20    19    1
   122    20    21    1
   123    13    12    2
   124    19    12   am
   125     5     2    1
   126    12    11    1
   127     2     3    1
   128    11    10    1
   129    22    21    2
   130     3     4    2
