@<TRIPOS>MOLECULE
tmp/2cciD00.pdb
 145 139 0 0 0
SMALL
GASTEIGER

@<TRIPOS>ATOM
      1  N         23.2700    8.2620   96.4200 N.3    36  MET36      -0.1245
      2  CA        23.8820    9.4640   95.8570 C.3    36  MET36       0.1570
      3  C         23.1110    9.9230   94.6230 C.2    36  MET36       0.2261
      4  O         22.8880   11.1180   94.4390 O.2    36  MET36      -0.2867
      5  CB        25.3570    9.2130   95.5230 C.3    36  MET36       0.0387
      6  CG        26.2360    8.9700   96.7630 C.3    36  MET36       0.0595
      7  SD        27.8980    8.3040   96.4620 S.3    36  MET36      -0.1393
      8  CE        28.6180    9.6460   95.5190 C.3    36  MET36       0.0692
      9  N         19.9180   11.9990   95.5420 N.3    39  ILE39      -0.1231
     10  CA        20.1780   13.4000   95.8890 C.3    39  ILE39       0.1692
     11  C         20.3400   14.2710   94.6330 C.2    39  ILE39       0.2591
     12  O         19.7540   15.3600   94.5420 O.2    39  ILE39      -0.2718
     13  CB        21.4140   13.5490   96.8100 C.3    39  ILE39       0.0266
     14  CG1       21.3410   12.5630   97.9820 C.3    39  ILE39       0.0019
     15  CG2       21.5130   14.9710   97.3400 C.3    39  ILE39       0.0020
     16  CD1       22.6540   12.3910   98.7410 C.3    39  ILE39       0.0001
     17  N         21.1260   13.7770   93.6750 N.am   40  LEU40      -0.1980
     18  CA        21.3320   14.4330   92.3830 C.3    40  LEU40       0.1596
     19  C         20.0000   14.6570   91.6670 C.2    40  LEU40       0.2287
     20  O         19.7080   15.7650   91.2040 O.2    40  LEU40      -0.2864
     21  CB        22.2670   13.5790   91.5170 C.3    40  LEU40       0.0297
     22  CG        22.3860   13.8410   90.0090 C.3    40  LEU40       0.0022
     23  CD1       23.3630   14.9760   89.7320 C.3    40  LEU40       0.0001
     24  CD2       22.8190   12.5730   89.2850 C.3    40  LEU40       0.0001
     25  N         16.9390   14.5020   93.0140 N.3    42  ASP42      -0.1225
     26  CA        16.1130   15.3660   93.8680 C.3    42  ASP42       0.1805
     27  C         16.4500   16.8460   93.6890 C.2    42  ASP42       0.2597
     28  O         15.5590   17.6910   93.6800 O.2    42  ASP42      -0.2718
     29  CB        16.2710   14.9670   95.3380 C.3    42  ASP42       0.1424
     30  CG        15.4380   15.8210   96.2750 C.2    42  ASP42       0.3668
     31  OD1       14.3200   15.3880   96.6290 O.co2  42  ASP42      -0.2456
     32  OD2       15.8990   16.9210   96.6520 O.co2  42  ASP42      -0.2456
     33  N         17.7380   17.1450   93.5530 N.am   43  TRP43      -0.1976
     34  CA        18.2020   18.5070   93.3150 C.3    43  TRP43       0.1640
     35  C         17.8500   19.0150   91.9110 C.2    43  TRP43       0.2290
     36  O         17.5090   20.1850   91.7330 O.2    43  TRP43      -0.2864
     37  CB        19.7050   18.5950   93.5530 C.3    43  TRP43       0.0576
     38  CG        20.3030   19.8580   93.0650 C.ar   43  TRP43       0.0006
     39  CD1       20.1550   21.0990   93.6120 C.ar   43  TRP43       0.0946
     40  CD2       21.1460   20.0210   91.9160 C.ar   43  TRP43       0.0152
     41  NE1       20.8550   22.0260   92.8780 N.ar   43  TRP43      -0.2442
     42  CE2       21.4750   21.3910   91.8320 C.ar   43  TRP43       0.0810
     43  CE3       21.6570   19.1420   90.9520 C.ar   43  TRP43       0.0012
     44  CZ2       22.2950   21.9060   90.8190 C.ar   43  TRP43       0.0191
     45  CZ3       22.4790   19.6570   89.9430 C.ar   43  TRP43       0.0001
     46  CH2       22.7860   21.0250   89.8870 C.ar   43  TRP43       0.0015
     47  N         14.6400   20.5140   91.8320 N.3    46  GLU46      -0.1231
     48  CA        14.6630   21.9010   92.2910 C.3    46  GLU46       0.1699
     49  C         15.1340   22.8650   91.1950 C.2    46  GLU46       0.2592
     50  O         14.6980   24.0130   91.1430 O.2    46  GLU46      -0.2718
     51  CB        15.5040   22.0290   93.5630 C.3    46  GLU46       0.0402
     52  CG        14.8610   21.3270   94.7480 C.3    46  GLU46       0.1161
     53  CD        15.7250   21.3140   95.9950 C.2    46  GLU46       0.3649
     54  OE1       16.8600   20.7940   95.9350 O.co2  46  GLU46      -0.2457
     55  OE2       15.2520   21.8070   97.0440 O.co2  46  GLU46      -0.2457
     56  N         16.0050   22.3860   90.3130 N.am   47  VAL47      -0.1980
     57  CA        16.4490   23.1710   89.1620 C.3    47  VAL47       0.1595
     58  C         15.2660   23.4350   88.2300 C.2    47  VAL47       0.2287
     59  O         15.0970   24.5460   87.7300 O.2    47  VAL47      -0.2864
     60  CB        17.6000   22.4640   88.4140 C.3    47  VAL47       0.0276
     61  CG1       17.9500   23.1900   87.1240 C.3    47  VAL47       0.0022
     62  CG2       18.8220   22.3480   89.3130 C.3    47  VAL47       0.0022
     63  N         12.9820   26.0910   89.7980 N.3    50  GLU50      -0.1245
     64  CA        13.6780   27.3730   89.7400 C.3    50  GLU50       0.1567
     65  C         13.6150   27.9930   88.3530 C.2    50  GLU50       0.2260
     66  O         13.3060   29.1800   88.2180 O.2    50  GLU50      -0.2867
     67  CB        15.1370   27.2170   90.1880 C.3    50  GLU50       0.0388
     68  CG        16.0640   28.4000   89.8700 C.3    50  GLU50       0.1160
     69  CD        15.7100   29.6940   90.6050 C.2    50  GLU50       0.3649
     70  OE1       15.0960   29.6380   91.6980 O.co2  50  GLU50      -0.2457
     71  OE2       16.0620   30.7760   90.0820 O.co2  50  GLU50      -0.2457
     72  N         32.5170   10.6780   92.7250 N.3    76  ARG76      -0.1231
     73  CA        31.4930   11.4930   93.3960 C.3    76  ARG76       0.1694
     74  C         31.5700   12.9980   93.0760 C.2    76  ARG76       0.2592
     75  O         30.5380   13.6650   92.9180 O.2    76  ARG76      -0.2718
     76  CB        31.5020   11.2460   94.9150 C.3    76  ARG76       0.0321
     77  CG        32.8790   11.1940   95.5680 C.3    76  ARG76       0.0489
     78  CD        32.8060   10.5650   96.9600 C.3    76  ARG76       0.2205
     79  NE        32.7930    9.0970   96.9380 N.pl3  76  ARG76      -0.0865
     80  CZ        32.5100    8.3200   97.9870 C.cat  76  ARG76       0.5346
     81  NH1       32.2010    8.8530   99.1660 N.pl3  76  ARG76       0.1354
     82  NH2       32.5310    6.9980   97.8570 N.pl3  76  ARG76       0.1354
     83  N         32.7920   13.5190   92.9740 N.am   77  GLY77      -0.1957
     84  CA        33.0160   14.9320   92.6760 C.3    77  GLY77       0.1869
     85  C         32.6150   15.3250   91.2650 C.2    77  GLY77       0.2309
     86  O         32.4780   16.5130   90.9620 O.2    77  GLY77      -0.2863
     87  N         29.9090   13.5640   89.6880 N.3    79  LEU79      -0.1231
     88  CA        28.5310   13.0840   89.5300 C.3    79  LEU79       0.1693
     89  C         27.5140   14.2070   89.3140 C.2    79  LEU79       0.2591
     90  O         26.4790   13.9900   88.6760 O.2    79  LEU79      -0.2718
     91  CB        28.1170   12.2010   90.7150 C.3    79  LEU79       0.0284
     92  CG        26.7390   11.5150   90.7210 C.3    79  LEU79       0.0019
     93  CD1       26.5060   10.6340   89.4910 C.3    79  LEU79       0.0001
     94  CD2       26.5360   10.7150   92.0070 C.3    79  LEU79       0.0001
     95  N         27.8130   15.3990   89.8290 N.am   80  GLN80      -0.1979
     96  CA        26.9470   16.5660   89.6300 C.3    80  GLN80       0.1601
     97  C         27.2160   17.2890   88.3000 C.2    80  GLN80       0.2287
     98  O         26.3330   17.9660   87.7690 O.2    80  GLN80      -0.2864
     99  CB        27.0520   17.5340   90.8110 C.3    80  GLN80       0.0394
    100  CG        26.1430   18.7400   90.6880 C.3    80  GLN80       0.0908
    101  CD        26.1350   19.6160   91.9170 C.2    80  GLN80       0.2608
    102  OE1       26.6970   19.2660   92.9600 O.2    80  GLN80      -0.2717
    103  NE2       25.4810   20.7660   91.8070 N.am   80  GLN80      -0.0878
    104  N         25.7020   28.7190   87.8010 N.3   106  TYR106     -0.1227
    105  CA        25.2020   29.4280   88.9860 C.3   106  TYR106      0.1736
    106  C         24.6500   28.4980   90.0680 C.2   106  TYR106      0.2595
    107  O         25.0720   28.5760   91.2300 O.2   106  TYR106     -0.2718
    108  CB        24.1500   30.4860   88.6160 C.3   106  TYR106      0.0548
    109  CG        23.3920   31.0530   89.8120 C.ar  106  TYR106     -0.0200
    110  CD1       24.0150   31.9160   90.7160 C.ar  106  TYR106     -0.0009
    111  CD2       22.0530   30.7240   90.0370 C.ar  106  TYR106     -0.0009
    112  CE1       23.3270   32.4350   91.8160 C.ar  106  TYR106      0.0417
    113  CE2       21.3570   31.2380   91.1330 C.ar  106  TYR106      0.0417
    114  CZ        22.0010   32.0930   92.0160 C.ar  106  TYR106      0.1957
    115  OH        21.3230   32.6050   93.0990 O.3   106  TYR106     -0.2866
    116  N         23.7180   27.6250   89.6790 N.am  107  ILE107     -0.1966
    117  CA        23.0460   26.7180   90.6250 C.3   107  ILE107      0.1727
    118  C         23.9230   25.5730   91.1430 C.2   107  ILE107      0.2617
    119  O         23.4110   24.5800   91.6630 O.2   107  ILE107     -0.2715
    120  CB        21.6980   26.1430   90.0740 C.3   107  ILE107      0.0290
    121  CG1       21.7260   25.9770   88.5490 C.3   107  ILE107      0.0022
    122  CG2       20.5240   27.0230   90.4970 C.3   107  ILE107      0.0023
    123  CD1       22.5780   24.8260   88.0470 C.3   107  ILE107      0.0001
    124  N         25.2380   25.7170   91.0020 N.am  108  THR108     -0.1937
    125  CA        26.1880   24.7480   91.5390 C.3   108  THR108      0.2028
    126  C         27.2140   25.4290   92.4560 C.2   108  THR108      0.2642
    127  O         28.1610   24.7890   92.9120 O.2   108  THR108     -0.2714
    128  CB        26.9140   23.9810   90.4090 C.3   108  THR108      0.1808
    129  OG1       27.5800   24.9100   89.5490 O.3   108  THR108     -0.2208
    130  CG2       25.9310   23.1630   89.5790 C.3   108  THR108      0.0379
    131  N         27.0040   26.7220   92.7300 N.am  109  ASP109     -0.1971
    132  CA        27.9760   27.5780   93.4290 C.3   109  ASP109      0.1709
    133  C         29.3660   27.4810   92.7770 C.2   109  ASP109      0.2293
    134  O         30.3940   27.4960   93.4600 O.2   109  ASP109     -0.2864
    135  CB        28.0130   27.2670   94.9370 C.3   109  ASP109      0.1436
    136  CG        28.6860   28.3720   95.7590 C.2   109  ASP109      0.3671
    137  OD1       27.9700   29.2580   96.2830 O.co2 109  ASP109     -0.2456
    138  OD2       29.9320   28.3540   95.8850 O.co2 109  ASP109     -0.2456
    139  N         30.8480   24.9330   91.2710 N.3   111  THR111     -0.1218
    140  CA        31.5780   23.6870   91.5150 C.3   111  THR111      0.1862
    141  C         32.3540   23.2960   90.2610 C.2   111  THR111      0.2287
    142  O         33.3990   22.6420   90.3430 O.2   111  THR111     -0.2866
    143  CB        30.6320   22.5280   91.9170 C.3   111  THR111      0.1770
    144  OG1       29.8040   22.9370   93.0090 O.3   111  THR111     -0.2211
    145  CG2       31.4190   21.2870   92.3400 C.3   111  THR111      0.0375
@<TRIPOS>BOND
     1    61    60    1
     2    59    58    2
     3    98    97    2
     4   104   105    1
     5   123   121    1
     6    66    65    2
     7    58    57    1
     8    97    96    1
     9    65    64    1
    10    60    57    1
    11    60    62    1
    12   121   120    1
    13   108   105    1
    14   108   109    1
    15    90    89    2
    16   105   106    1
    17    57    56    1
    18    24    22    1
    19    89    88    1
    20    89    95   am
    21    93    92    1
    22    88    87    1
    23    88    91    1
    24   129   128    1
    25   130   128    1
    26    96    95    1
    27    96    99    1
    28   116   106   am
    29   116   117    1
    30    23    22    1
    31    64    63    1
    32    64    67    1
    33   109   111   ar
    34   109   110   ar
    35    68    67    1
    36    68    69    1
    37    46    45   ar
    38    46    44   ar
    39    45    43   ar
    40    22    21    1
    41   111   113   ar
    42   106   107    2
    43   120   122    1
    44   120   117    1
    45    71    69   ar
    46   141   142    2
    47   141   140    1
    48    56    49   am
    49   128   125    1
    50    69    70   ar
    51   117   118    1
    52   100    99    1
    53   100   101    1
    54    91    92    1
    55   110   112   ar
    56    92    94    1
    57    44    42   ar
    58    43    40   ar
    59    86    85    2
    60   124   118   am
    61   124   125    1
    62   113   114   ar
    63    50    49    2
    64   118   119    2
    65    49    48    1
    66    20    19    2
    67    85    84    1
    68   139   140    1
    69   140   143    1
    70    21    18    1
    71   125   126    1
    72    19    18    1
    73    36    35    2
    74   103   101   am
    75   112   114   ar
    76    42    40   ar
    77    42    41   ar
    78    47    48    1
    79    35    34    1
    80    40    38   ar
    81   143   145    1
    82   143   144    1
    83   101   102    2
    84   114   115    1
    85    48    51    1
    86    18    17    1
    87   126   131   am
    88   126   127    2
    89    84    83    1
    90    72    73    1
    91   131   132    1
    92   133   132    1
    93   133   134    2
    94    41    39   ar
    95    75    74    2
    96    83    74   am
    97    25    26    1
    98    38    37    1
    99    38    39   ar
   100    74    73    1
   101    34    33    1
   102    34    37    1
   103    73    76    1
   104   132   135    1
   105    33    27   am
   106    51    52    1
   107    17    11   am
   108    28    27    2
   109    27    26    1
   110    26    29    1
   111     4     3    2
   112    12    11    2
   113     3     2    1
   114    11    10    1
   115    52    53    1
   116    76    77    1
   117   135   136    1
   118    29    30    1
   119     8     7    1
   120     5     2    1
   121     5     6    1
   122     9    10    1
   123    77    78    1
   124   136   138   ar
   125   136   137   ar
   126     2     1    1
   127    10    13    1
   128    54    53   ar
   129    53    55   ar
   130    30    31   ar
   131    30    32   ar
   132     7     6    1
   133    13    15    1
   134    13    14    1
   135    79    78    1
   136    79    80    2
   137    82    80    1
   138    14    16    1
   139    80    81    1
