@<TRIPOS>MOLECULE
tmp/2ccjB01.pdb
 112 105 0 0 0
SMALL
GASTEIGER

@<TRIPOS>ATOM
      1  N        -11.1480   43.5120   93.1500 N.3    47  ARG47      -0.1245
      2  CA       -10.1510   42.8530   92.3120 C.3    47  ARG47       0.1563
      3  C         -9.1490   42.0720   93.1700 C.2    47  ARG47       0.2260
      4  O         -8.6780   41.0060   92.7770 O.2    47  ARG47      -0.2867
      5  CB        -9.4150   43.9010   91.4710 C.3    47  ARG47       0.0307
      6  CG        -8.4600   43.3440   90.4310 C.3    47  ARG47       0.0489
      7  CD        -7.6520   44.4680   89.7900 C.3    47  ARG47       0.2205
      8  NE        -6.8720   44.0000   88.6500 N.pl3  47  ARG47      -0.0865
      9  CZ        -7.3310   43.9330   87.4050 C.cat  47  ARG47       0.5346
     10  NH1       -8.5710   44.3100   87.1290 N.pl3  47  ARG47       0.1354
     11  NH2       -6.5520   43.4860   86.4330 N.pl3  47  ARG47       0.1354
     12  N         -7.1710   38.4310   92.6850 N.3    51  LEU51      -0.1245
     13  CA        -5.7140   38.3100   92.6310 C.3    51  LEU51       0.1561
     14  C         -5.1610   37.3900   93.7210 C.2    51  LEU51       0.2260
     15  O         -4.1000   36.7830   93.5560 O.2    51  LEU51      -0.2867
     16  CB        -5.0680   39.6940   92.7300 C.3    51  LEU51       0.0270
     17  CG        -5.5010   40.7150   91.6670 C.3    51  LEU51       0.0019
     18  CD1       -4.7120   41.9970   91.8510 C.3    51  LEU51       0.0001
     19  CD2       -5.2850   40.1560   90.2630 C.3    51  LEU51       0.0001
     20  N        -13.6060   30.2110   87.4920 N.3    58  ILE58      -0.1245
     21  CA       -13.5730   31.2520   86.4700 C.3    58  ILE58       0.1561
     22  C        -14.8260   32.1300   86.4200 C.2    58  ILE58       0.2260
     23  O        -14.7360   33.3130   86.0960 O.2    58  ILE58      -0.2867
     24  CB       -13.2930   30.6490   85.0650 C.3    58  ILE58       0.0252
     25  CG1      -12.9660   31.7710   84.0810 C.3    58  ILE58       0.0019
     26  CG2      -14.4910   29.8530   84.5780 C.3    58  ILE58       0.0019
     27  CD1      -12.5660   31.2750   82.7060 C.3    58  ILE58       0.0001
     28  N        -14.5180   34.5880   89.2180 N.3    61  GLU61      -0.1231
     29  CA       -13.5740   35.6190   88.7930 C.3    61  GLU61       0.1699
     30  C        -14.2710   36.6220   87.8770 C.2    61  GLU61       0.2592
     31  O        -14.1500   37.8310   88.0660 O.2    61  GLU61      -0.2718
     32  CB       -12.3900   35.0070   88.0400 C.3    61  GLU61       0.0402
     33  CG       -11.4930   34.1330   88.8910 C.3    61  GLU61       0.1161
     34  CD       -10.3150   33.6080   88.0970 C.2    61  GLU61       0.3649
     35  OE1      -10.5500   32.9470   87.0610 O.co2  61  GLU61      -0.2457
     36  OE2       -9.1620   33.8580   88.5040 O.co2  61  GLU61      -0.2457
     37  N        -15.0110   36.1200   86.8880 N.am   62  ALA62      -0.1980
     38  CA       -15.6980   37.0120   85.9640 C.3    62  ALA62       0.1597
     39  C        -16.6820   37.9430   86.6750 C.2    62  ALA62       0.2287
     40  O        -16.7540   39.1290   86.3560 O.2    62  ALA62      -0.2864
     41  CB       -16.4250   36.2090   84.8890 C.3    62  ALA62       0.0319
     42  N        -14.7260   40.6690   88.5930 N.3    65  PHE65      -0.1241
     43  CA       -14.1880   41.6710   87.6960 C.3    65  PHE65       0.1605
     44  C        -15.3200   42.5440   87.1600 C.2    65  PHE65       0.2264
     45  O        -15.1290   43.7330   86.9060 O.2    65  PHE65      -0.2867
     46  CB       -13.4210   41.0080   86.5530 C.3    65  PHE65       0.0534
     47  CG       -12.0230   40.6040   86.9280 C.ar   65  PHE65      -0.0203
     48  CD1      -11.6840   39.2680   87.0820 C.ar   65  PHE65      -0.0042
     49  CD2      -11.0420   41.5700   87.1240 C.ar   65  PHE65      -0.0042
     50  CE1      -10.3880   38.8940   87.4210 C.ar   65  PHE65      -0.0003
     51  CE2       -9.7440   41.2070   87.4650 C.ar   65  PHE65      -0.0003
     52  CZ        -9.4170   39.8650   87.6120 C.ar   65  PHE65      -0.0000
     53  N        -15.5700   46.4190   87.6040 N.3    69  ARG69      -0.1245
     54  CA       -15.8020   47.2330   86.4190 C.3    69  ARG69       0.1563
     55  C        -16.9050   48.2630   86.6660 C.2    69  ARG69       0.2260
     56  O        -16.7730   49.4290   86.2890 O.2    69  ARG69      -0.2867
     57  CB       -16.1860   46.3440   85.2240 C.3    69  ARG69       0.0307
     58  CG       -16.8990   47.0650   84.0870 C.3    69  ARG69       0.0489
     59  CD       -16.9210   46.2000   82.8250 C.3    69  ARG69       0.2205
     60  NE       -15.5670   46.0150   82.3220 N.pl3  69  ARG69      -0.0865
     61  CZ       -15.1560   44.9680   81.6190 C.cat  69  ARG69       0.5346
     62  NH1      -16.0010   43.9940   81.3240 N.pl3  69  ARG69       0.1354
     63  NH2      -13.8840   44.8880   81.2370 N.pl3  69  ARG69       0.1354
     64  N        -13.6430   41.3140   77.9240 N.3    96  SER96      -0.1217
     65  CA       -14.2710   40.2520   78.7100 C.3    96  SER96       0.1889
     66  C        -14.8600   39.2110   77.7850 C.2    96  SER96       0.2288
     67  O        -14.7320   38.0030   78.0200 O.2    96  SER96      -0.2866
     68  CB       -15.3680   40.8260   79.6070 C.3    96  SER96       0.2089
     69  OG       -14.7970   41.6370   80.6120 O.3    96  SER96      -0.2183
     70  N        -11.7760   37.3000   75.8670 N.3    99  TYR99      -0.1227
     71  CA       -10.9740   36.4660   76.7430 C.3    99  TYR99       0.1736
     72  C        -11.7780   35.4520   77.5420 C.2    99  TYR99       0.2595
     73  O        -11.5490   34.2540   77.4210 O.2    99  TYR99      -0.2718
     74  CB       -10.1300   37.3330   77.6880 C.3    99  TYR99       0.0548
     75  CG        -8.9950   38.0430   76.9850 C.ar   99  TYR99      -0.0200
     76  CD1       -9.2180   39.2110   76.2510 C.ar   99  TYR99      -0.0009
     77  CD2       -7.7020   37.5160   77.0080 C.ar   99  TYR99      -0.0009
     78  CE1       -8.1820   39.8390   75.5570 C.ar   99  TYR99       0.0417
     79  CE2       -6.6590   38.1320   76.3130 C.ar   99  TYR99       0.0417
     80  CZ        -6.9070   39.2940   75.5920 C.ar   99  TYR99       0.1957
     81  OH        -5.8860   39.9080   74.9050 O.3    99  TYR99      -0.2866
     82  N        -12.7250   35.9270   78.3440 N.am  100  GLN100     -0.1979
     83  CA       -13.5290   35.0310   79.1730 C.3   100  GLN100      0.1601
     84  C        -14.6160   34.2800   78.4330 C.2   100  GLN100      0.2287
     85  O        -14.7960   33.0810   78.6450 O.2   100  GLN100     -0.2864
     86  CB       -14.1710   35.8000   80.3270 C.3   100  GLN100      0.0394
     87  CG       -13.1970   36.1390   81.4350 C.3   100  GLN100      0.0908
     88  CD       -12.0580   37.0060   80.9490 C.2   100  GLN100      0.2608
     89  OE1      -12.2750   38.1300   80.4980 O.2   100  GLN100     -0.2717
     90  NE2      -10.8350   36.4880   81.0360 N.am  100  GLN100     -0.0878
     91  N        -11.5570   31.5610   77.0070 N.3   104  ARG104     -0.1245
     92  CA       -11.6380   30.7120   78.1930 C.3   104  ARG104      0.1563
     93  C        -12.8240   29.7570   78.1000 C.2   104  ARG104      0.2260
     94  O        -12.9700   28.8510   78.9200 O.2   104  ARG104     -0.2867
     95  CB       -11.7480   31.5620   79.4610 C.3   104  ARG104      0.0307
     96  CG       -10.4770   32.3270   79.8150 C.3   104  ARG104      0.0489
     97  CD        -9.2860   31.3960   79.9960 C.3   104  ARG104      0.2205
     98  NE        -8.0910   32.1210   80.4240 N.pl3 104  ARG104     -0.0865
     99  CZ        -6.8880   31.5710   80.5620 C.cat 104  ARG104      0.5346
    100  NH1       -6.7090   30.2810   80.3050 N.pl3 104  ARG104      0.1354
    101  NH2       -5.8620   32.3110   80.9590 N.pl3 104  ARG104      0.1354
    102  N         -4.0220   29.9230   72.9990 N.3   154  PHE154     -0.1241
    103  CA        -4.9510   30.8160   73.6800 C.3   154  PHE154      0.1605
    104  C         -4.9440   32.1590   72.9550 C.2   154  PHE154      0.2264
    105  O         -5.9850   32.7890   72.7750 O.2   154  PHE154     -0.2867
    106  CB        -4.5350   30.9860   75.1410 C.3   154  PHE154      0.0534
    107  CG        -5.4300   31.9020   75.9250 C.ar  154  PHE154     -0.0203
    108  CD1       -5.0640   33.2240   76.1540 C.ar  154  PHE154     -0.0042
    109  CD2       -6.6450   31.4480   76.4280 C.ar  154  PHE154     -0.0042
    110  CE1       -5.8980   34.0780   76.8740 C.ar  154  PHE154     -0.0003
    111  CE2       -7.4820   32.2970   77.1470 C.ar  154  PHE154     -0.0003
    112  CZ        -7.1060   33.6140   77.3680 C.ar  154  PHE154     -0.0000
@<TRIPOS>BOND
     1   105   104    2
     2   104   103    1
     3   102   103    1
     4   103   106    1
     5    81    80    1
     6   106   107    1
     7    78    80   ar
     8    78    76   ar
     9    80    79   ar
    10    70    71    1
    11   107   108   ar
    12   107   109   ar
    13   108   110   ar
    14    76    75   ar
    15    79    77   ar
    16   109   111   ar
    17    71    72    1
    18    71    74    1
    19   110   112   ar
    20    75    77   ar
    21    75    74    1
    22    91    92    1
    23   111   112   ar
    24    73    72    2
    25    72    82   am
    26    66    67    2
    27    66    65    1
    28    64    65    1
    29    93    92    1
    30    93    94    2
    31    92    95    1
    32    82    83    1
    33    84    85    2
    34    84    83    1
    35    65    68    1
    36    83    86    1
    37    95    96    1
    38    68    69    1
    39    96    97    1
    40    97    98    1
    41   100    99    1
    42    86    87    1
    43    98    99    2
    44    89    88    2
    45    99   101    1
    46    88    90   am
    47    88    87    1
    48    63    61    1
    49    62    61    1
    50    61    60    2
    51    60    59    1
    52    27    25    1
    53    59    58    1
    54    25    24    1
    55    58    57    1
    56    26    24    1
    57    41    38    1
    58    24    21    1
    59    57    54    1
    60    38    39    1
    61    38    37    1
    62    23    22    2
    63    56    55    2
    64    40    39    2
    65    54    55    1
    66    54    53    1
    67    22    21    1
    68    11     9    1
    69    21    20    1
    70    46    47    1
    71    46    43    1
    72    37    30   am
    73    45    44    2
    74    47    48   ar
    75    47    49   ar
    76    35    34   ar
    77    48    50   ar
    78    49    51   ar
    79    10     9    1
    80    44    43    1
    81     9     8    2
    82    50    52   ar
    83    51    52   ar
    84    43    42    1
    85    30    31    2
    86    30    29    1
    87    32    29    1
    88    32    33    1
    89    34    36   ar
    90    34    33    1
    91     8     7    1
    92    29    28    1
    93     7     6    1
    94    19    17    1
    95     6     5    1
    96     5     2    1
    97    17    18    1
    98    17    16    1
    99     2     1    1
   100     2     3    1
   101    13    12    1
   102    13    16    1
   103    13    14    1
   104     4     3    2
   105    15    14    2
