@<TRIPOS>MOLECULE
tmp/2ccrB02.pdb
 180 179 0 0 0
SMALL
GASTEIGER

@<TRIPOS>ATOM
      1  N         40.2340   38.4200   20.4820 N.3   105  TRP105     -0.1227
      2  CA        39.8580   39.6990   19.8770 C.3   105  TRP105      0.1737
      3  C         40.5870   40.0470   18.5940 C.2   105  TRP105      0.2595
      4  O         41.8140   40.0430   18.5450 O.2   105  TRP105     -0.2718
      5  CB        40.0410   40.8480   20.8770 C.3   105  TRP105      0.0564
      6  CG        39.1640   40.7170   22.0890 C.ar  105  TRP105      0.0003
      7  CD1       39.5460   40.3170   23.3280 C.ar  105  TRP105      0.0946
      8  CD2       37.7430   40.9260   22.1520 C.ar  105  TRP105      0.0152
      9  NE1       38.4590   40.2570   24.1650 N.ar  105  TRP105     -0.2442
     10  CE2       37.3410   40.6240   23.4720 C.ar  105  TRP105      0.0810
     11  CE3       36.7770   41.3340   21.2220 C.ar  105  TRP105      0.0012
     12  CZ2       36.0040   40.7210   23.8890 C.ar  105  TRP105      0.0191
     13  CZ3       35.4450   41.4280   21.6390 C.ar  105  TRP105      0.0001
     14  CH2       35.0760   41.1200   22.9640 C.ar  105  TRP105      0.0015
     15  N         39.8170   40.3420   17.5500 N.am  106  ALA106     -0.1966
     16  CA        40.3760   40.7430   16.2640 C.3   106  ALA106      0.1728
     17  C         39.9510   42.1840   16.0090 C.2   106  ALA106      0.2616
     18  O         38.7580   42.4770   15.9610 O.2   106  ALA106     -0.2715
     19  CB        39.8420   39.8520   15.1630 C.3   106  ALA106      0.0334
     20  N         40.9120   43.0910   15.8730 N.am  107  ASP107     -0.1971
     21  CA        40.5790   44.4850   15.6020 C.3   107  ASP107      0.1709
     22  C         41.6840   45.1330   14.7770 C.2   107  ASP107      0.2293
     23  O         42.5460   44.4310   14.2750 O.2   107  ASP107     -0.2864
     24  CB        40.3130   45.2400   16.9200 C.3   107  ASP107      0.1436
     25  CG        41.5310   45.3180   17.8270 C.2   107  ASP107      0.3671
     26  OD1       42.6720   45.3620   17.3200 O.co2 107  ASP107     -0.2456
     27  OD2       41.3340   45.3700   19.0580 O.co2 107  ASP107     -0.2456
     28  N         44.9440   44.0240   16.3690 N.3   110  LYS110     -0.1245
     29  CA        45.1150   42.5960   16.6060 C.3   110  LYS110      0.1561
     30  C         44.3770   41.7160   15.6040 C.2   110  LYS110      0.2260
     31  O         43.1490   41.7200   15.5420 O.2   110  LYS110     -0.2867
     32  CB        44.6600   42.2450   18.0260 C.3   110  LYS110      0.0271
     33  CG        45.4250   42.9740   19.1140 C.3   110  LYS110      0.0035
     34  CD        44.8450   42.7050   20.5080 C.3   110  LYS110      0.0206
     35  CE        43.4410   43.2830   20.6430 C.3   110  LYS110      0.1093
     36  NZ        42.8940   43.1270   22.0210 N.3   110  LYS110     -0.1314
     37  N         36.8170   43.7730   11.4670 N.3   155  GLU155     -0.1245
     38  CA        37.6340   44.9900   11.4710 C.3   155  GLU155      0.1567
     39  C         39.0440   44.7390   10.9290 C.2   155  GLU155      0.2260
     40  O         40.0470   45.0870   11.5520 O.2   155  GLU155     -0.2867
     41  CB        37.7090   45.5690   12.8860 C.3   155  GLU155      0.0388
     42  CG        36.3620   45.9540   13.4660 C.3   155  GLU155      0.1160
     43  CD        36.4930   46.8570   14.6760 C.2   155  GLU155      0.3649
     44  OE1       37.5180   46.7630   15.3820 O.co2 155  GLU155     -0.2457
     45  OE2       35.5730   47.6580   14.9410 O.co2 155  GLU155     -0.2457
     46  N         31.3870   53.9080   16.2430 N.3   224  TYR224     -0.1241
     47  CA        31.3240   54.3080   17.6350 C.3   224  TYR224      0.1605
     48  C         31.5260   55.8250   17.5900 C.2   224  TYR224      0.2264
     49  O         32.6220   56.3080   17.3010 O.2   224  TYR224     -0.2867
     50  CB        32.4340   53.6010   18.4170 C.3   224  TYR224      0.0534
     51  CG        32.1910   52.1130   18.5880 C.ar  224  TYR224     -0.0201
     52  CD1       31.2370   51.6420   19.4940 C.ar  224  TYR224     -0.0009
     53  CD2       32.8980   51.1750   17.8360 C.ar  224  TYR224     -0.0009
     54  CE1       30.9910   50.2740   19.6510 C.ar  224  TYR224      0.0417
     55  CE2       32.6590   49.8010   17.9840 C.ar  224  TYR224      0.0417
     56  CZ        31.7060   49.3620   18.8920 C.ar  224  TYR224      0.1957
     57  OH        31.4720   48.0160   19.0540 O.3   224  TYR224     -0.2866
     58  N         28.6560   47.3650   14.0030 N.3   253  GLU253     -0.1245
     59  CA        28.8290   47.5970   15.4440 C.3   253  GLU253      0.1567
     60  C         28.6280   49.0540   15.7950 C.2   253  GLU253      0.2260
     61  O         29.1710   49.9340   15.1300 O.2   253  GLU253     -0.2867
     62  CB        30.2520   47.2230   15.8960 C.3   253  GLU253      0.0388
     63  CG        30.5430   45.7510   16.0950 C.3   253  GLU253      0.1160
     64  CD        31.9430   45.5230   16.6400 C.2   253  GLU253      0.3649
     65  OE1       32.4410   46.3800   17.4060 O.co2 253  GLU253     -0.2457
     66  OE2       32.5610   44.4820   16.3220 O.co2 253  GLU253     -0.2457
     67  N         35.4830   47.4120   36.9410 N.3   266  HIS266     -0.1226
     68  CA        36.5140   47.3420   35.9180 C.3   266  HIS266      0.1752
     69  C         36.2930   48.4900   34.9230 C.2   266  HIS266      0.2597
     70  O         35.3010   48.5210   34.1920 O.2   266  HIS266     -0.2718
     71  CB        36.4700   45.9800   35.2210 C.3   266  HIS266      0.0759
     72  CG        37.5400   45.7990   34.1930 C.ar  266  HIS266      0.0818
     73  ND1       37.4710   46.3660   32.9390 N.ar  266  HIS266     -0.2268
     74  CD2       38.7280   45.1560   34.2480 C.ar  266  HIS266      0.1154
     75  CE1       38.5710   46.0820   32.2670 C.ar  266  HIS266      0.1986
     76  NE2       39.3500   45.3480   33.0400 N.ar  266  HIS266     -0.2212
     77  N         37.2290   49.4360   34.9220 N.am  267  GLY267     -0.1942
     78  CA        37.1430   50.6080   34.0660 C.3   267  GLY267      0.2014
     79  C         36.4960   50.4490   32.7000 C.2   267  GLY267      0.2639
     80  O         36.8440   49.5480   31.9290 O.2   267  GLY267     -0.2714
     81  N         35.5620   51.3440   32.3910 N.am  268  ASN268     -0.1958
     82  CA        34.8590   51.3070   31.1150 C.3   268  ASN268      0.1819
     83  C         35.5890   52.0380   29.9890 C.2   268  ASN268      0.2621
     84  O         36.4400   52.8890   30.2380 O.2   268  ASN268     -0.2715
     85  CB        33.4450   51.8770   31.2770 C.3   268  ASN268      0.1195
     86  CG        32.5670   50.9970   32.1440 C.2   268  ASN268      0.2630
     87  OD1       32.8570   49.8150   32.3270 O.2   268  ASN268     -0.2716
     88  ND2       31.4800   51.5610   32.6690 N.am  268  ASN268     -0.0877
     89  N         35.2490   51.6840   28.7520 N.am  269  THR269     -0.1951
     90  CA        35.8430   52.2780   27.5490 C.3   269  THR269      0.1897
     91  C         35.4170   53.7270   27.3780 C.2   269  THR269      0.2313
     92  O         36.1990   54.5640   26.9200 O.2   269  THR269     -0.2863
     93  CB        35.4160   51.5100   26.2720 C.3   269  THR269      0.1794
     94  OG1       35.6480   50.1110   26.4510 O.3   269  THR269     -0.2208
     95  CG2       36.2200   51.9810   25.0620 C.3   269  THR269      0.0378
     96  N         35.0720   59.3220   28.2770 N.3   272  LYS272     -0.1245
     97  CA        36.4120   59.7540   28.6690 C.3   272  LYS272      0.1561
     98  C         36.7610   61.1020   28.0520 C.2   272  LYS272      0.2260
     99  O         36.2920   61.4510   26.9840 O.2   272  LYS272     -0.2867
    100  CB        37.4650   58.7420   28.2230 C.3   272  LYS272      0.0271
    101  CG        37.4720   57.4280   28.9520 C.3   272  LYS272      0.0035
    102  CD        38.6650   56.5980   28.5150 C.3   272  LYS272      0.0206
    103  CE        38.8790   55.4250   29.4430 C.3   272  LYS272      0.1093
    104  NZ        40.2850   54.9640   29.3320 N.3   272  LYS272     -0.1314
    105  N         26.3280   46.8400   19.2280 N.3   310  TRP310     -0.1241
    106  CA        27.3040   45.9120   19.8150 C.3   310  TRP310      0.1605
    107  C         27.2310   45.7370   21.3340 C.2   310  TRP310      0.2264
    108  O         27.3900   46.6950   22.0940 O.2   310  TRP310     -0.2867
    109  CB        28.7340   46.3170   19.4360 C.3   310  TRP310      0.0550
    110  CG        29.7460   45.2480   19.7830 C.ar  310  TRP310      0.0003
    111  CD1       29.9010   44.0340   19.1660 C.ar  310  TRP310      0.0946
    112  CD2       30.6770   45.2610   20.8750 C.ar  310  TRP310      0.0152
    113  NE1       30.8610   43.2850   19.8140 N.ar  310  TRP310     -0.2442
    114  CE2       31.3490   44.0120   20.8710 C.ar  310  TRP310      0.0810
    115  CE3       30.9930   46.1970   21.8750 C.ar  310  TRP310      0.0012
    116  CZ2       32.3390   43.6820   21.8180 C.ar  310  TRP310      0.0191
    117  CZ3       31.9770   45.8700   22.8210 C.ar  310  TRP310      0.0001
    118  CH2       32.6300   44.6170   22.7860 C.ar  310  TRP310      0.0015
    119  N         26.0850   43.4100   28.1470 N.3   314  TRP314     -0.1241
    120  CA        27.2910   42.9310   28.8010 C.3   314  TRP314      0.1605
    121  C         27.3270   43.6190   30.1610 C.2   314  TRP314      0.2264
    122  O         28.2050   44.4490   30.4380 O.2   314  TRP314     -0.2867
    123  CB        28.5370   43.3200   28.0100 C.3   314  TRP314      0.0550
    124  CG        29.7120   42.4470   28.3290 C.ar  314  TRP314      0.0003
    125  CD1       29.9280   41.7560   29.4900 C.ar  314  TRP314      0.0946
    126  CD2       30.8270   42.1570   27.4760 C.ar  314  TRP314      0.0152
    127  NE1       31.1030   41.0530   29.4120 N.ar  314  TRP314     -0.2442
    128  CE2       31.6780   41.2820   28.1890 C.ar  314  TRP314      0.0810
    129  CE3       31.1910   42.5550   26.1830 C.ar  314  TRP314      0.0012
    130  CZ2       32.8740   40.7900   27.6490 C.ar  314  TRP314      0.0191
    131  CZ3       32.3830   42.0670   25.6380 C.ar  314  TRP314      0.0001
    132  CH2       33.2120   41.1940   26.3770 C.ar  314  TRP314      0.0015
    133  N         35.9250   40.9350   29.8040 N.3   337  TRP337     -0.1241
    134  CA        36.4280   41.0850   28.4390 C.3   337  TRP337      0.1605
    135  C         37.6340   40.1900   28.1670 C.2   337  TRP337      0.2264
    136  O         37.9630   39.9190   27.0090 O.2   337  TRP337     -0.2867
    137  CB        36.8140   42.5360   28.1360 C.3   337  TRP337      0.0550
    138  CG        38.2290   42.8670   28.4910 C.ar  337  TRP337      0.0003
    139  CD1       38.6960   43.2950   29.7040 C.ar  337  TRP337      0.0946
    140  CD2       39.3810   42.7480   27.6380 C.ar  337  TRP337      0.0152
    141  NE1       40.0660   43.4470   29.6590 N.ar  337  TRP337     -0.2442
    142  CE2       40.5110   43.1190   28.4060 C.ar  337  TRP337      0.0810
    143  CE3       39.5670   42.3660   26.3010 C.ar  337  TRP337      0.0012
    144  CZ2       41.8130   43.1140   27.8770 C.ar  337  TRP337      0.0191
    145  CZ3       40.8600   42.3620   25.7780 C.ar  337  TRP337      0.0001
    146  CH2       41.9640   42.7360   26.5650 C.ar  337  TRP337      0.0015
    147  N         48.2360   43.4720   25.2290 N.3   349  ASP349     -0.1239
    148  CA        46.9660   44.0830   25.6110 C.3   349  ASP349      0.1674
    149  C         46.2200   43.3490   26.7240 C.2   349  ASP349      0.2266
    150  O         46.1330   43.8350   27.8510 O.2   349  ASP349     -0.2867
    151  CB        46.0820   44.2100   24.3690 C.3   349  ASP349      0.1410
    152  CG        44.9620   45.2000   24.5520 C.2   349  ASP349      0.3668
    153  OD1       45.1990   46.2450   25.1900 O.co2 349  ASP349     -0.2456
    154  OD2       43.8480   44.9440   24.0470 O.co2 349  ASP349     -0.2456
    155  N         45.6450   44.1670   30.8870 N.3   353  TRP353     -0.1241
    156  CA        44.3600   44.7990   31.1340 C.3   353  TRP353      0.1605
    157  C         43.1950   43.8380   31.3790 C.2   353  TRP353      0.2264
    158  O         42.0400   44.2680   31.4480 O.2   353  TRP353     -0.2867
    159  CB        44.0210   45.7300   29.9620 C.3   353  TRP353      0.0550
    160  CG        44.8100   47.0210   29.9320 C.ar  353  TRP353      0.0003
    161  CD1       45.3150   47.6470   28.8280 C.ar  353  TRP353      0.0946
    162  CD2       45.1100   47.8780   31.0470 C.ar  353  TRP353      0.0152
    163  NE1       45.9050   48.8400   29.1810 N.ar  353  TRP353     -0.2442
    164  CE2       45.7930   49.0080   30.5350 C.ar  353  TRP353      0.0810
    165  CE3       44.8650   47.8030   32.4260 C.ar  353  TRP353      0.0012
    166  CZ2       46.2370   50.0550   31.3570 C.ar  353  TRP353      0.0191
    167  CZ3       45.3100   48.8480   33.2470 C.ar  353  TRP353      0.0001
    168  CH2       45.9860   49.9570   32.7070 C.ar  353  TRP353      0.0015
    169  N         33.9120   46.2420   30.0660 N.3   358  ALA358     -0.1231
    170  CA        34.3400   47.6180   29.8070 C.3   358  ALA358      0.1694
    171  C         33.2160   48.4160   29.1510 C.2   358  ALA358      0.2591
    172  O         33.4040   49.5770   28.7750 O.2   358  ALA358     -0.2718
    173  CB        35.5650   47.6170   28.8900 C.3   358  ALA358      0.0304
    174  N         32.0490   47.7950   29.0260 N.am  359  VAL359     -0.1980
    175  CA        30.9170   48.4430   28.3840 C.3   359  VAL359      0.1595
    176  C         29.5800   48.2490   29.0900 C.2   359  VAL359      0.2287
    177  O         28.5180   48.3890   28.4660 O.2   359  VAL359     -0.2864
    178  CB        30.7770   47.9500   26.9260 C.3   359  VAL359      0.0276
    179  CG1       32.0870   48.1660   26.1780 C.3   359  VAL359      0.0022
    180  CG2       30.3860   46.4840   26.9100 C.3   359  VAL359      0.0022
@<TRIPOS>BOND
     1    39    38    1
     2    39    40    2
     3    37    38    1
     4    38    41    1
     5    41    42    1
     6    42    43    1
     7    58    59    1
     8    23    22    2
     9    43    45   ar
    10    43    44   ar
    11    22    21    1
    12    61    60    2
    13    19    16    1
    14    59    60    1
    15    59    62    1
    16    31    30    2
    17    21    20    1
    18    21    24    1
    19    30    29    1
    20    20    17   am
    21    62    63    1
    22    18    17    2
    23    17    16    1
    24    63    64    1
    25    46    47    1
    26    16    15    1
    27    66    64   ar
    28    28    29    1
    29    29    32    1
    30    64    65   ar
    31    24    25    1
    32    49    48    2
    33    26    25   ar
    34    15     3   am
    35    48    47    1
    36    47    50    1
    37    25    27   ar
    38    53    55   ar
    39    53    51   ar
    40    55    56   ar
    41    32    33    1
    42    50    51    1
    43     4     3    2
    44    51    52   ar
    45     3     2    1
    46    56    57    1
    47    56    54   ar
    48    33    34    1
    49   111   110   ar
    50   111   113   ar
    51   105   106    1
    52   109   110    1
    53   109   106    1
    54    52    54   ar
    55   110   112   ar
    56   113   114   ar
    57   106   107    1
    58     2     1    1
    59     2     5    1
    60    34    35    1
    61    35    36    1
    62   114   112   ar
    63   114   116   ar
    64   112   115   ar
    65     5     6    1
    66    11    13   ar
    67    11     8   ar
    68   107   108    2
    69    13    14   ar
    70   116   118   ar
    71   115   117   ar
    72     6     8   ar
    73     6     7   ar
    74     8    10   ar
    75   118   117   ar
    76    14    12   ar
    77     7     9   ar
    78    10    12   ar
    79    10     9   ar
    80   154   152   ar
    81   151   152    1
    82   151   148    1
    83   152   153   ar
    84    95    93    1
    85   147   148    1
    86   148   149    1
    87   131   129   ar
    88   131   132   ar
    89   145   143   ar
    90   145   146   ar
    91   179   178    1
    92   129   126   ar
    93    93    94    1
    94    93    90    1
    95   143   140   ar
    96   132   130   ar
    97   146   144   ar
    98   149   150    2
    99   180   178    1
   100    92    91    2
   101   178   175    1
   102    99    98    2
   103   136   135    2
   104    91    90    1
   105   126   128   ar
   106   126   124   ar
   107    90    89    1
   108   140   142   ar
   109   140   138   ar
   110   130   128   ar
   111   144   142   ar
   112   123   124    1
   113   123   120    1
   114    98    97    1
   115   137   134    1
   116   137   138    1
   117   119   120    1
   118   135   134    1
   119   128   127   ar
   120   100    97    1
   121   100   101    1
   122    96    97    1
   123   124   125   ar
   124   175   174    1
   125   175   176    1
   126   142   141   ar
   127   134   133    1
   128   177   176    2
   129   138   139   ar
   130   102   101    1
   131   102   103    1
   132    89    83   am
   133   172   171    2
   134   120   121    1
   135   161   163   ar
   136   161   160   ar
   137   173   170    1
   138   174   171   am
   139   171   170    1
   140   163   164   ar
   141   104   103    1
   142   127   125   ar
   143   141   139   ar
   144   170   169    1
   145   160   159    1
   146   160   162   ar
   147   159   156    1
   148    83    84    2
   149    83    82    1
   150   121   122    2
   151   164   162   ar
   152   164   166   ar
   153   155   156    1
   154   162   165   ar
   155    82    85    1
   156    82    81    1
   157   156   157    1
   158    85    86    1
   159   166   168   ar
   160   157   158    2
   161    80    79    2
   162    86    87    2
   163    86    88   am
   164    75    73   ar
   165    75    76   ar
   166    81    79   am
   167   165   167   ar
   168    79    78    1
   169   168   167   ar
   170    73    72   ar
   171    76    74   ar
   172    78    77    1
   173    70    69    2
   174    72    74   ar
   175    72    71    1
   176    77    69   am
   177    69    68    1
   178    71    68    1
   179    68    67    1
