@<TRIPOS>MOLECULE
tmp/2ccrB03.pdb
 104 101 0 0 0
SMALL
GASTEIGER

@<TRIPOS>ATOM
      1  N         40.9120   43.0910   15.8730 N.3   107  ASP107     -0.1225
      2  CA        40.5790   44.4850   15.6020 C.3   107  ASP107      0.1790
      3  C         41.6840   45.1330   14.7770 C.2   107  ASP107      0.2440
      4  O         42.5460   44.4310   14.2750 O.2   107  ASP107     -0.2733
      5  CB        40.3130   45.2400   16.9200 C.3   107  ASP107      0.1423
      6  CG        41.5310   45.3180   17.8270 C.2   107  ASP107      0.3668
      7  OD1       42.6720   45.3620   17.3200 O.co2 107  ASP107     -0.2456
      8  OD2       41.3340   45.3700   19.0580 O.co2 107  ASP107     -0.2456
      9  N         41.6790   46.4700   14.6210 N.am  108  PRO108     -0.2718
     10  CA        42.7410   47.0900   13.8180 C.3   108  PRO108      0.1535
     11  C         44.1750   46.7460   14.2270 C.2   108  PRO108      0.2598
     12  O         45.0550   46.6030   13.3740 O.2   108  PRO108     -0.2715
     13  CB        42.4500   48.5810   13.9620 C.3   108  PRO108      0.0310
     14  CG        40.9670   48.6050   14.0860 C.3   108  PRO108      0.0237
     15  CD        40.7120   47.4900   15.0590 C.3   108  PRO108      0.0939
     16  N         44.4030   46.6080   15.5290 N.am  109  ALA109     -0.1978
     17  CA        45.7350   46.3100   16.0460 C.3   109  ALA109      0.1597
     18  C         45.9990   44.8280   16.2770 C.2   109  ALA109      0.2287
     19  O         47.1540   44.4160   16.3710 O.2   109  ALA109     -0.2864
     20  CB        45.9730   47.0730   17.3440 C.3   109  ALA109      0.0319
     21  N         36.8170   43.7730   11.4670 N.3   155  GLU155     -0.1245
     22  CA        37.6340   44.9900   11.4710 C.3   155  GLU155      0.1567
     23  C         39.0440   44.7390   10.9290 C.2   155  GLU155      0.2260
     24  O         40.0470   45.0870   11.5520 O.2   155  GLU155     -0.2867
     25  CB        37.7090   45.5690   12.8860 C.3   155  GLU155      0.0388
     26  CG        36.3620   45.9540   13.4660 C.3   155  GLU155      0.1160
     27  CD        36.4930   46.8570   14.6760 C.2   155  GLU155      0.3649
     28  OE1       37.5180   46.7630   15.3820 O.co2 155  GLU155     -0.2457
     29  OE2       35.5730   47.6580   14.9410 O.co2 155  GLU155     -0.2457
     30  N         36.7240   49.4260    9.9160 N.3   194  THR194     -0.1203
     31  CA        36.4230   50.4790   10.8590 C.3   194  THR194      0.1994
     32  C         37.2370   51.7430   10.6160 C.2   194  THR194      0.2617
     33  O         38.0640   51.7970    9.7010 O.2   194  THR194     -0.2717
     34  CB        36.6020   49.9880   12.3190 C.3   194  THR194      0.1784
     35  OG1       36.1660   51.0170   13.2210 O.3   194  THR194     -0.2211
     36  CG2       38.0560   49.6260   12.5920 C.3   194  THR194      0.0376
     37  N         36.9890   52.7520   11.4510 N.am  195  ASN195     -0.1974
     38  CA        37.6230   54.0720   11.3580 C.3   195  ASN195      0.1688
     39  C         37.2150   54.7420   10.0510 C.2   195  ASN195      0.2292
     40  O         38.0570   55.1200    9.2370 O.2   195  ASN195     -0.2864
     41  CB        39.1560   53.9840   11.4590 C.3   195  ASN195      0.1181
     42  CG        39.6270   53.6930   12.8710 C.2   195  ASN195      0.2629
     43  OD1       39.9590   52.5580   13.2100 O.2   195  ASN195     -0.2716
     44  ND2       39.6320   54.7170   13.7140 N.am  195  ASN195     -0.0877
     45  N         40.2050   56.2640    3.4380 N.3   201  ARG201     -0.1245
     46  CA        40.3470   54.8600    3.8120 C.3   201  ARG201      0.1563
     47  C         39.3710   53.8770    3.1380 C.2   201  ARG201      0.2260
     48  O         39.7940   52.9720    2.4190 O.2   201  ARG201     -0.2867
     49  CB        40.2570   54.7220    5.3340 C.3   201  ARG201      0.0307
     50  CG        39.8530   53.3410    5.8160 C.3   201  ARG201      0.0489
     51  CD        40.0040   53.2300    7.3100 C.3   201  ARG201      0.2205
     52  NE        41.2850   52.6150    7.6310 N.pl3 201  ARG201     -0.0865
     53  CZ        42.1170   53.0500    8.5710 C.cat 201  ARG201      0.5346
     54  NH1       41.8130   54.1170    9.2990 N.pl3 201  ARG201      0.1354
     55  NH2       43.2530   52.4030    8.7770 N.pl3 201  ARG201      0.1354
     56  N         32.1690   49.6640   11.4260 N.3   222  SER222     -0.1217
     57  CA        31.9110   49.8760   12.8360 C.3   222  SER222      0.1889
     58  C         31.5970   51.3530   12.9120 C.2   222  SER222      0.2288
     59  O         31.9850   52.1170   12.0290 O.2   222  SER222     -0.2866
     60  CB        33.1550   49.6070   13.6960 C.3   222  SER222      0.2089
     61  OG        33.3730   48.2270   13.8910 O.3   222  SER222     -0.2183
     62  N         31.3870   53.9080   16.2430 N.3   224  TYR224     -0.1241
     63  CA        31.3240   54.3080   17.6350 C.3   224  TYR224      0.1605
     64  C         31.5260   55.8250   17.5900 C.2   224  TYR224      0.2264
     65  O         32.6220   56.3080   17.3010 O.2   224  TYR224     -0.2867
     66  CB        32.4340   53.6010   18.4170 C.3   224  TYR224      0.0534
     67  CG        32.1910   52.1130   18.5880 C.ar  224  TYR224     -0.0201
     68  CD1       31.2370   51.6420   19.4940 C.ar  224  TYR224     -0.0009
     69  CD2       32.8980   51.1750   17.8360 C.ar  224  TYR224     -0.0009
     70  CE1       30.9910   50.2740   19.6510 C.ar  224  TYR224      0.0417
     71  CE2       32.6590   49.8010   17.9840 C.ar  224  TYR224      0.0417
     72  CZ        31.7060   49.3620   18.8920 C.ar  224  TYR224      0.1957
     73  OH        31.4720   48.0160   19.0540 O.3   224  TYR224     -0.2866
     74  N         34.8430   57.9900   18.6580 N.3   227  TRP227     -0.1227
     75  CA        36.0680   58.1650   17.8770 C.3   227  TRP227      0.1737
     76  C         35.9310   58.2100   16.3570 C.2   227  TRP227      0.2595
     77  O         36.8550   58.6330   15.6730 O.2   227  TRP227     -0.2718
     78  CB        37.0490   57.0240   18.1860 C.3   227  TRP227      0.0564
     79  CG        37.0060   56.4740   19.5890 C.ar  227  TRP227      0.0003
     80  CD1       37.4690   57.0860   20.7230 C.ar  227  TRP227      0.0946
     81  CD2       36.5450   55.1710   19.9960 C.ar  227  TRP227      0.0152
     82  NE1       37.3330   56.2460   21.8060 N.ar  227  TRP227     -0.2442
     83  CE2       36.7710   55.0730   21.3900 C.ar  227  TRP227      0.0810
     84  CE3       35.9690   54.0870   19.3190 C.ar  227  TRP227      0.0012
     85  CZ2       36.4410   53.9280   22.1130 C.ar  227  TRP227      0.0191
     86  CZ3       35.6410   52.9540   20.0340 C.ar  227  TRP227      0.0001
     87  CH2       35.8760   52.8800   21.4210 C.ar  227  TRP227      0.0015
     88  N         34.7960   57.7860   15.8220 N.am  228  HIS228     -0.1975
     89  CA        34.6650   57.6990   14.3750 C.3   228  HIS228      0.1656
     90  C         34.0880   58.8100   13.5380 C.2   228  HIS228      0.2291
     91  O         33.5710   58.5600   12.4450 O.2   228  HIS228     -0.2864
     92  CB        33.9530   56.4010   14.0340 C.3   228  HIS228      0.0771
     93  CG        34.6770   55.1920   14.5240 C.ar  228  HIS228      0.0820
     94  ND1       34.0290   54.0350   14.8980 N.ar  228  HIS228     -0.2267
     95  CD2       35.9990   54.9560   14.6940 C.ar  228  HIS228      0.1154
     96  CE1       34.9200   53.1370   15.2790 C.ar  228  HIS228      0.1986
     97  NE2       36.1230   53.6700   15.1640 N.ar  228  HIS228     -0.2212
     98  N         35.2490   51.6840   28.7520 N.3   269  THR269     -0.1218
     99  CA        35.8430   52.2780   27.5490 C.3   269  THR269      0.1862
    100  C         35.4170   53.7270   27.3780 C.2   269  THR269      0.2287
    101  O         36.1990   54.5640   26.9200 O.2   269  THR269     -0.2866
    102  CB        35.4160   51.5100   26.2720 C.3   269  THR269      0.1770
    103  OG1       35.6480   50.1110   26.4510 O.3   269  THR269     -0.2211
    104  CG2       36.2200   51.9810   25.0620 C.3   269  THR269      0.0375
@<TRIPOS>BOND
     1    48    47    2
     2    47    46    1
     3    45    46    1
     4    46    49    1
     5    49    50    1
     6    50    51    1
     7    51    52    1
     8    52    53    2
     9    53    55    1
    10    53    54    1
    11    40    39    2
    12    33    32    2
    13    30    31    1
    14    39    38    1
    15    32    31    1
    16    32    37   am
    17    31    34    1
    18    23    22    1
    19    23    24    2
    20    38    37    1
    21    38    41    1
    22    56    57    1
    23    41    42    1
    24    21    22    1
    25    22    25    1
    26    59    58    2
    27    34    36    1
    28    34    35    1
    29    91    90    2
    30    57    58    1
    31    57    60    1
    32    42    43    2
    33    42    44   am
    34    25    26    1
    35    12    11    2
    36    26    27    1
    37    90    89    1
    38    60    61    1
    39    10    13    1
    40    10    11    1
    41    10     9    1
    42    13    14    1
    43    92    89    1
    44    92    93    1
    45    14    15    1
    46    11    16   am
    47     4     3    2
    48    89    88    1
    49    93    95   ar
    50    93    94   ar
    51     9     3   am
    52     9    15    1
    53    27    29   ar
    54    27    28   ar
    55    95    97   ar
    56     3     2    1
    57    94    96   ar
    58    97    96   ar
    59    16    17    1
    60     2     1    1
    61     2     5    1
    62    77    76    2
    63    88    76   am
    64    17    18    1
    65    17    20    1
    66    62    63    1
    67    18    19    2
    68    76    75    1
    69     5     6    1
    70    65    64    2
    71     7     6   ar
    72    64    63    1
    73    63    66    1
    74     6     8   ar
    75    69    71   ar
    76    69    67   ar
    77    75    78    1
    78    75    74    1
    79    71    72   ar
    80    78    79    1
    81    66    67    1
    82    67    68   ar
    83    72    73    1
    84    72    70   ar
    85    84    81   ar
    86    84    86   ar
    87    68    70   ar
    88    79    81   ar
    89    79    80   ar
    90    81    83   ar
    91    86    87   ar
    92    80    82   ar
    93    83    82   ar
    94    83    85   ar
    95    87    85   ar
    96   104   102    1
    97   102   103    1
    98   102    99    1
    99   101   100    2
   100   100    99    1
   101    99    98    1
