@<TRIPOS>MOLECULE
tmp/2ccsA00.pdb
 143 130 0 0 0
SMALL
GASTEIGER

@<TRIPOS>ATOM
      1  N         30.8910   11.4270   16.0130 N.3    33  LEU33      -0.1245
      2  CA        30.1700   11.8790   17.2290 C.3    33  LEU33       0.1561
      3  C         28.8900   11.1400   17.6120 C.2    33  LEU33       0.2260
      4  O         28.5720   10.9120   18.8230 O.2    33  LEU33      -0.2867
      5  CB        29.9240   13.4080   17.1950 C.3    33  LEU33       0.0270
      6  CG        31.2200   14.1980   17.1150 C.3    33  LEU33       0.0019
      7  CD1       30.7720   15.6960   16.9230 C.3    33  LEU33       0.0001
      8  CD2       32.2270   13.9570   18.4030 C.3    33  LEU33       0.0001
      9  N         29.9690    7.8850   19.0590 N.3    36  ASN36      -0.1225
     10  CA        30.3500    7.9620   20.4620 C.3    36  ASN36       0.1785
     11  C         29.0570    8.0020   21.3350 C.2    36  ASN36       0.2597
     12  O         28.9700    7.3940   22.4050 O.2    36  ASN36      -0.2718
     13  CB        31.2200    9.2270   20.7180 C.3    36  ASN36       0.1169
     14  CG        32.6690    9.0580   20.2810 C.2    36  ASN36       0.2627
     15  OD1       33.1390    7.9350   20.0680 O.2    36  ASN36      -0.2716
     16  ND2       33.4160   10.1620   20.2860 N.am   36  ASN36      -0.0877
     17  N         28.0690    8.7630   20.8940 N.am   37  SER37      -0.1952
     18  CA        26.8290    8.9140   21.6800 C.3    37  SER37       0.1924
     19  C         26.1680    7.5250   21.7360 C.2    37  SER37       0.2314
     20  O         25.6880    7.1230   22.7710 O.2    37  SER37      -0.2863
     21  CB        25.8720    9.8720   21.0020 C.3    37  SER37       0.2116
     22  OG        26.3380   11.2470   20.9790 O.3    37  SER37      -0.2180
     23  N         27.6250    4.5340   21.5910 N.3    39  ASP39      -0.1225
     24  CA        28.3400    3.7160   22.5730 C.3    39  ASP39       0.1805
     25  C         27.9440    4.0620   24.0440 C.2    39  ASP39       0.2597
     26  O         27.7350    3.1790   24.8230 O.2    39  ASP39      -0.2718
     27  CB        29.8500    3.8070   22.3880 C.3    39  ASP39       0.1424
     28  CG        30.3040    3.2470   21.0360 C.2    39  ASP39       0.3668
     29  OD1       29.5220    2.4950   20.3480 O.co2  39  ASP39      -0.2456
     30  OD2       31.4320    3.5180   20.5670 O.co2  39  ASP39      -0.2456
     31  N         27.8480    5.3610   24.3710 N.am   40  ALA40      -0.1979
     32  CA        27.4850    5.8240   25.7370 C.3    40  ALA40       0.1597
     33  C         26.0470    5.4170   26.0630 C.2    40  ALA40       0.2287
     34  O         25.7340    5.1170   27.2150 O.2    40  ALA40      -0.2864
     35  CB        27.7290    7.3880   25.8600 C.3    40  ALA40       0.0319
     36  N         25.9290    1.8950   26.9590 N.3    43  LYS43      -0.1245
     37  CA        26.4580    1.6090   28.2820 C.3    43  LYS43       0.1561
     38  C         25.4090    1.8180   29.3900 C.2    43  LYS43       0.2260
     39  O         25.2600    1.0040   30.3320 O.2    43  LYS43      -0.2867
     40  CB        27.6950    2.4730   28.5770 C.3    43  LYS43       0.0271
     41  CG        28.9340    2.1640   27.7650 C.3    43  LYS43       0.0035
     42  CD        29.8860    3.3320   27.8030 C.3    43  LYS43       0.0206
     43  CE        31.2940    2.8690   27.6480 C.3    43  LYS43       0.1093
     44  NZ        32.1070    4.1180   27.6610 N.3    43  LYS43      -0.1314
     45  N         25.5220   18.2470   19.4160 N.3    76  ILE76      -0.1245
     46  CA        25.0470   16.8210   19.5110 C.3    76  ILE76       0.1561
     47  C         24.7990   16.4590   20.9720 C.2    76  ILE76       0.2260
     48  O         25.7260   16.5340   21.8160 O.2    76  ILE76      -0.2867
     49  CB        26.0700   15.8040   18.9190 C.3    76  ILE76       0.0252
     50  CG1       26.3800   16.0670   17.4510 C.3    76  ILE76       0.0019
     51  CG2       25.5760   14.3330   19.0760 C.3    76  ILE76       0.0019
     52  CD1       27.2890   17.2280   17.2100 C.3    76  ILE76       0.0001
     53  N         23.2760   13.6180   23.7630 N.3    78  ASP78      -0.1239
     54  CA        22.7860   12.2470   24.0140 C.3    78  ASP78       0.1674
     55  C         22.3830   12.1400   25.4950 C.2    78  ASP78       0.2266
     56  O         22.8960   12.9320   26.3230 O.2    78  ASP78      -0.2867
     57  CB        23.7810   11.1420   23.6080 C.3    78  ASP78       0.1410
     58  CG        25.0480   11.1840   24.3740 C.2    78  ASP78       0.3668
     59  OD1       25.0600   10.8450   25.6120 O.co2  78  ASP78      -0.2456
     60  OD2       26.1070   11.5270   23.7850 O.co2  78  ASP78      -0.2456
     61  N         25.5410    7.4040   29.1180 N.3    81  ILE81      -0.1231
     62  CA        26.0860    7.2540   30.4620 C.3    81  ILE81       0.1692
     63  C         26.7750    8.4760   31.0300 C.2    81  ILE81       0.2593
     64  O         26.8250    8.6480   32.2550 O.2    81  ILE81      -0.2718
     65  CB        26.9620    5.9910   30.5880 C.3    81  ILE81       0.0266
     66  CG1       27.0790    5.6040   32.0750 C.3    81  ILE81       0.0019
     67  CG2       28.3230    6.1450   29.8420 C.3    81  ILE81       0.0020
     68  CD1       27.1920    4.1080   32.3540 C.3    81  ILE81       0.0001
     69  N         27.2670    9.3480   30.1610 N.am   82  GLY82      -0.1942
     70  CA        27.9590   10.5340   30.6310 C.3    82  GLY82       0.2014
     71  C         29.3820   10.1670   31.0330 C.2    82  GLY82       0.2638
     72  O         29.8340    9.0050   30.9490 O.2    82  GLY82      -0.2714
     73  N         30.1210   11.1900   31.4130 N.am   83  MET83      -0.1976
     74  CA        31.4880   11.0160   31.8080 C.3    83  MET83       0.1605
     75  C         31.7370   11.6840   33.1710 C.2    83  MET83       0.2287
     76  O         31.1820   12.8030   33.4570 O.2    83  MET83      -0.2864
     77  CB        32.4080   11.6350   30.7420 C.3    83  MET83       0.0413
     78  CG        32.6450   10.7200   29.5140 C.3    83  MET83       0.0598
     79  SD        33.4950   11.6030   28.1610 S.3    83  MET83      -0.1393
     80  CE        32.3360   12.8460   27.6500 C.3    83  MET83       0.0692
     81  N         37.2520   10.7390   33.6740 N.3    87  ASP87      -0.1239
     82  CA        37.1040   10.3510   32.2190 C.3    87  ASP87       0.1674
     83  C         37.3750   11.5730   31.3220 C.2    87  ASP87       0.2266
     84  O         38.0430   11.4710   30.2930 O.2    87  ASP87      -0.2867
     85  CB        35.6660    9.8990   31.8370 C.3    87  ASP87       0.1410
     86  CG        35.2360    8.5150   32.3820 C.2    87  ASP87       0.3668
     87  OD1       36.0610    7.5770   32.4320 O.co2  87  ASP87      -0.2456
     88  OD2       34.0150    8.2760   32.7540 O.co2  87  ASP87      -0.2456
     89  N         38.5970   12.1540   27.4440 N.3    92  LEU92      -0.1231
     90  CA        37.2040   11.8440   27.2020 C.3    92  LEU92       0.1693
     91  C         36.8950   10.3200   27.1290 C.2    92  LEU92       0.2593
     92  O         36.1550    9.8790   26.2690 O.2    92  LEU92      -0.2718
     93  CB        36.7220   12.5870   25.8850 C.3    92  LEU92       0.0284
     94  CG        36.9340   14.1570   25.9230 C.3    92  LEU92       0.0019
     95  CD1       38.2810   14.5820   25.2630 C.3    92  LEU92       0.0001
     96  CD2       35.7880   14.8930   25.4010 C.3    92  LEU92       0.0001
     97  N         37.4520    9.5440   28.0580 N.am   93  GLY93      -0.1942
     98  CA        37.1890    8.1200   28.1480 C.3    93  GLY93       0.2014
     99  C         37.7860    7.2780   27.0190 C.2    93  GLY93       0.2639
    100  O         37.3830    6.0800   26.8750 O.2    93  GLY93      -0.2714
    101  N         38.7430    7.8420   26.2580 N.am   94  THR94      -0.1950
    102  CA        39.4290    7.1280   25.1610 C.3    94  THR94       0.1897
    103  C         40.7920    6.6210   25.5420 C.2    94  THR94       0.2313
    104  O         41.4300    7.1630   26.4530 O.2    94  THR94      -0.2863
    105  CB        39.6050    7.9930   23.8540 C.3    94  THR94       0.1794
    106  OG1       40.5270    9.0780   24.0880 O.3    94  THR94      -0.2208
    107  CG2       38.2370    8.6850   23.4400 C.3    94  THR94       0.0378
    108  N         39.6250    4.4290   18.0630 N.3   120  GLY120     -0.1225
    109  CA        39.0680    4.8110   19.3430 C.3   120  GLY120      0.1811
    110  C         39.2460    6.2950   19.7010 C.2   120  GLY120      0.2280
    111  O         39.0210    6.6700   20.8230 O.2   120  GLY120     -0.2866
    112  N         36.4400   11.1280   18.4370 N.3   123  PHE123     -0.1241
    113  CA        36.1040   12.4930   18.9870 C.3   123  PHE123      0.1605
    114  C         36.8850   13.6150   18.3210 C.2   123  PHE123      0.2264
    115  O         36.2920   14.6680   17.9870 O.2   123  PHE123     -0.2867
    116  CB        36.3300   12.6390   20.5430 C.3   123  PHE123      0.0534
    117  CG        36.2300   14.0560   21.0310 C.ar  123  PHE123     -0.0203
    118  CD1       34.9720   14.7140   21.0900 C.ar  123  PHE123     -0.0042
    119  CD2       37.3980   14.7570   21.4120 C.ar  123  PHE123     -0.0042
    120  CE1       34.8450   16.0570   21.5650 C.ar  123  PHE123     -0.0003
    121  CE2       37.3000   16.0780   21.8540 C.ar  123  PHE123     -0.0003
    122  CZ        36.0520   16.7320   21.9400 C.ar  123  PHE123     -0.0000
    123  N         32.4060   20.3040   25.6120 N.3   135  VAL135     -0.1245
    124  CA        31.7250   19.0730   25.9930 C.3   135  VAL135      0.1561
    125  C         31.1540   19.2540   27.3720 C.2   135  VAL135      0.2260
    126  O         31.9150   19.4550   28.3560 O.2   135  VAL135     -0.2867
    127  CB        32.6950   17.8920   25.9890 C.3   135  VAL135      0.0252
    128  CG1       31.9360   16.5630   26.3780 C.3   135  VAL135      0.0019
    129  CG2       33.3590   17.7890   24.5890 C.3   135  VAL135      0.0019
    130  N         25.6690   13.6220   27.6180 N.3   169  THR169     -0.1218
    131  CA        26.7790   14.3740   27.0540 C.3   169  THR169      0.1862
    132  C         26.2660   15.2540   25.9260 C.2   169  THR169      0.2287
    133  O         25.4220   14.7960   25.0940 O.2   169  THR169     -0.2866
    134  CB        27.8640   13.3660   26.5800 C.3   169  THR169      0.1770
    135  OG1       28.3710   12.6910   27.7430 O.3   169  THR169     -0.2211
    136  CG2       29.1340   14.0800   25.9730 C.3   169  THR169      0.0375
    137  N         27.8940   17.8250   23.0490 N.3   171  VAL171     -0.1245
    138  CA        29.0770   18.2880   22.3360 C.3   171  VAL171      0.1561
    139  C         28.6930   19.5490   21.5150 C.2   171  VAL171      0.2260
    140  O         27.8760   19.4760   20.5780 O.2   171  VAL171     -0.2867
    141  CB        29.6640   17.1910   21.4230 C.3   171  VAL171      0.0252
    142  CG1       30.9500   17.7330   20.6960 C.3   171  VAL171      0.0019
    143  CG2       30.0470   15.9290   22.2020 C.3   171  VAL171      0.0019
@<TRIPOS>BOND
     1     1     2    1
     2     7     6    1
     3     6     5    1
     4     6     8    1
     5     5     2    1
     6    52    50    1
     7     2     3    1
     8    50    49    1
     9     3     4    2
    10   115   114    2
    11   108   109    1
    12   114   113    1
    13   112   113    1
    14    49    51    1
    15    49    46    1
    16   113   116    1
    17     9    10    1
    18   109   110    1
    19    45    46    1
    20    46    47    1
    21   110   111    2
    22    15    14    2
    23    14    16   am
    24    14    13    1
    25    29    28   ar
    26    10    13    1
    27    10    11    1
    28   116   117    1
    29    30    28   ar
    30   140   139    2
    31   142   141    1
    32    17    11   am
    33    17    18    1
    34    47    48    2
    35    22    21    1
    36    21    18    1
    37   117   118   ar
    38   117   119   ar
    39    28    27    1
    40   118   120   ar
    41    11    12    2
    42   119   121   ar
    43   141   143    1
    44   141   138    1
    45   139   138    1
    46   120   122   ar
    47    23    24    1
    48    18    19    1
    49    19    20    2
    50   121   122   ar
    51   138   137    1
    52    27    24    1
    53    24    25    1
    54   107   105    1
    55    57    54    1
    56    57    58    1
    57    53    54    1
    58    60    58   ar
    59   105   106    1
    60   105   102    1
    61    54    55    1
    62    25    31   am
    63    25    26    2
    64    31    32    1
    65    58    59   ar
    66   129   127    1
    67   133   132    2
    68   102   103    1
    69   102   101    1
    70    95    94    1
    71    96    94    1
    72    55    56    2
    73   103   104    2
    74   123   124    1
    75    32    35    1
    76    32    33    1
    77    93    94    1
    78    93    90    1
    79   132   131    1
    80   136   134    1
    81   127   124    1
    82   127   128    1
    83   124   125    1
    84    33    34    2
    85   101    99   am
    86    92    91    2
    87   134   131    1
    88   134   135    1
    89   100    99    2
    90    36    37    1
    91    99    98    1
    92   131   130    1
    93    91    90    1
    94    91    97   am
    95    90    89    1
    96   125   126    2
    97    43    44    1
    98    43    42    1
    99    80    79    1
   100    41    42    1
   101    41    40    1
   102    97    98    1
   103    79    78    1
   104    37    40    1
   105    37    38    1
   106    61    62    1
   107    38    39    2
   108    78    77    1
   109    67    65    1
   110    69    70    1
   111    69    63   am
   112    84    83    2
   113    62    65    1
   114    62    63    1
   115    65    66    1
   116    70    71    1
   117    77    74    1
   118    72    71    2
   119    63    64    2
   120    71    73   am
   121    83    82    1
   122    73    74    1
   123    74    75    1
   124    85    82    1
   125    85    86    1
   126    66    68    1
   127    82    81    1
   128    86    87   ar
   129    86    88   ar
   130    75    76    2
