@<TRIPOS>MOLECULE
tmp/2cctA00.pdb
 153 140 0 0 0
SMALL
GASTEIGER

@<TRIPOS>ATOM
      1  N         31.2640   11.4610   16.0940 N.3    33  LEU33      -0.1245
      2  CA        30.5690   11.9910   17.2430 C.3    33  LEU33       0.1561
      3  C         29.3100   11.2050   17.6270 C.2    33  LEU33       0.2260
      4  O         29.2060   10.6820   18.7550 O.2    33  LEU33      -0.2867
      5  CB        30.2830   13.4440   16.9550 C.3    33  LEU33       0.0270
      6  CG        31.5750   14.2450   17.0180 C.3    33  LEU33       0.0019
      7  CD1       31.1400   15.6090   17.0330 C.3    33  LEU33       0.0001
      8  CD2       32.5430   13.8490   18.2860 C.3    33  LEU33       0.0001
      9  N         30.2060    7.9450   18.9900 N.3    36  ASN36      -0.1225
     10  CA        30.6660    8.0020   20.3790 C.3    36  ASN36       0.1785
     11  C         29.4560    8.0440   21.3360 C.2    36  ASN36       0.2597
     12  O         29.4430    7.4210   22.4370 O.2    36  ASN36      -0.2718
     13  CB        31.5770    9.2490   20.6460 C.3    36  ASN36       0.1169
     14  CG        33.0790    9.0340   20.2720 C.2    36  ASN36       0.2627
     15  OD1       33.4660    8.0300   19.7300 O.2    36  ASN36      -0.2716
     16  ND2       33.8760   10.0630   20.4700 N.am   36  ASN36      -0.0877
     17  N         28.4830    8.8910   20.9760 N.am   37  SER37      -0.1952
     18  CA        27.2360    8.9970   21.7080 C.3    37  SER37       0.1924
     19  C         26.5500    7.6170   21.8530 C.2    37  SER37       0.2314
     20  O         26.0920    7.2480   22.9060 O.2    37  SER37      -0.2863
     21  CB        26.3080    9.9620   20.9750 C.3    37  SER37       0.2116
     22  OG        26.7270   11.3600   21.0050 O.3    37  SER37      -0.2180
     23  N         27.8840    4.4010   21.5690 N.3    39  ASP39      -0.1225
     24  CA        28.7080    3.7570   22.6150 C.3    39  ASP39       0.1805
     25  C         28.3980    4.0900   24.0280 C.2    39  ASP39       0.2597
     26  O         28.4120    3.1880   24.8770 O.2    39  ASP39      -0.2718
     27  CB        30.2070    4.0180   22.4630 C.3    39  ASP39       0.1424
     28  CG        30.7400    3.4890   21.2060 C.2    39  ASP39       0.3668
     29  OD1       30.0150    2.7400   20.4880 O.co2  39  ASP39      -0.2456
     30  OD2       31.8710    3.7840   20.7670 O.co2  39  ASP39      -0.2456
     31  N         28.1490    5.3730   24.3000 N.am   40  ALA40      -0.1979
     32  CA        27.8870    5.8550   25.6520 C.3    40  ALA40       0.1597
     33  C         26.4540    5.5240   26.0870 C.2    40  ALA40       0.2287
     34  O         26.1400    5.4110   27.3130 O.2    40  ALA40      -0.2864
     35  CB        28.1790    7.4060   25.7790 C.3    40  ALA40       0.0319
     36  N         26.2300    1.9530   27.0800 N.3    43  LYS43      -0.1245
     37  CA        26.7780    1.7070   28.3850 C.3    43  LYS43       0.1561
     38  C         25.8100    1.9710   29.5080 C.2    43  LYS43       0.2260
     39  O         25.8190    1.2720   30.4920 O.2    43  LYS43      -0.2867
     40  CB        28.0970    2.5000   28.6500 C.3    43  LYS43       0.0271
     41  CG        29.2660    2.2540   27.7300 C.3    43  LYS43       0.0035
     42  CD        30.5740    2.7320   28.3090 C.3    43  LYS43       0.0206
     43  CE        31.5090    2.9870   27.1310 C.3    43  LYS43       0.1093
     44  NZ        33.0290    2.8780   27.4540 N.3    43  LYS43      -0.1314
     45  N         25.8490   18.3670   19.4940 N.3    76  ILE76      -0.1245
     46  CA        25.3350   16.9760   19.5410 C.3    76  ILE76       0.1561
     47  C         25.1210   16.6950   21.0380 C.2    76  ILE76       0.2260
     48  O         26.0890   16.7440   21.8170 O.2    76  ILE76      -0.2867
     49  CB        26.3680   15.9720   18.9450 C.3    76  ILE76       0.0252
     50  CG1       26.6490   16.2540   17.5050 C.3    76  ILE76       0.0019
     51  CG2       25.8770   14.5220   18.9620 C.3    76  ILE76       0.0019
     52  CD1       27.9060   17.2440   17.3360 C.3    76  ILE76       0.0001
     53  N         23.6300   13.9060   24.0090 N.3    78  ASP78      -0.1239
     54  CA        23.1200   12.5180   24.2280 C.3    78  ASP78       0.1674
     55  C         22.8650   12.2120   25.6890 C.2    78  ASP78       0.2266
     56  O         23.3950   12.9010   26.5540 O.2    78  ASP78      -0.2867
     57  CB        23.9910   11.4340   23.5710 C.3    78  ASP78       0.1410
     58  CG        25.2930   11.2780   24.2490 C.2    78  ASP78       0.3668
     59  OD1       25.3180   10.8800   25.4610 O.co2  78  ASP78      -0.2456
     60  OD2       26.3530   11.5350   23.6530 O.co2  78  ASP78      -0.2456
     61  N         25.7620    7.3870   29.4310 N.3    81  ILE81      -0.1231
     62  CA        26.5250    7.3400   30.6470 C.3    81  ILE81       0.1692
     63  C         27.3360    8.5540   31.1160 C.2    81  ILE81       0.2593
     64  O         27.5550    8.7210   32.3260 O.2    81  ILE81      -0.2718
     65  CB        27.3720    6.0490   30.6910 C.3    81  ILE81       0.0266
     66  CG1       27.5250    5.5580   32.1570 C.3    81  ILE81       0.0019
     67  CG2       28.6500    6.1770   29.9840 C.3    81  ILE81       0.0020
     68  CD1       27.8360    4.0060   32.1800 C.3    81  ILE81       0.0001
     69  N         27.7930    9.3930   30.2080 N.am   82  GLY82      -0.1942
     70  CA        28.5610   10.5890   30.6220 C.3    82  GLY82       0.2014
     71  C         29.9460   10.2070   31.0960 C.2    82  GLY82       0.2641
     72  O         30.2410    9.0210   31.1670 O.2    82  GLY82      -0.2714
     73  N         30.7890   11.1980   31.3730 N.am   83  MET83      -0.1931
     74  CA        32.1070   10.9380   31.9000 C.3    83  MET83       0.1821
     75  C         32.2870   11.6130   33.2840 C.2    83  MET83       0.2332
     76  O         31.5870   12.6180   33.6390 O.2    83  MET83      -0.2860
     77  CB        33.1800   11.4290   30.9010 C.2    83  MET83       0.0096
     78  CG        33.2580   10.7320   29.5210 C.2    83  MET83       0.0285
     79  SD        34.1270   11.6510   28.2040 S.3    83  MET83      -0.1125
     80  CE        33.0030   12.7150   27.5010 C.3    83  MET83       0.0742
     81  N         37.6130   10.9720   33.6610 N.3    87  ASP87      -0.1239
     82  CA        37.4900   10.5150   32.2860 C.3    87  ASP87       0.1674
     83  C         37.8070   11.6350   31.3260 C.2    87  ASP87       0.2266
     84  O         38.3890   11.3960   30.2210 O.2    87  ASP87      -0.2867
     85  CB        36.0780    9.9840   32.0050 C.3    87  ASP87       0.1410
     86  CG        35.8190    8.6240   32.6700 C.2    87  ASP87       0.3668
     87  OD1       36.7470    7.8310   32.8300 O.co2  87  ASP87      -0.2456
     88  OD2       34.7340    8.2740   33.1200 O.co2  87  ASP87      -0.2456
     89  N         39.0610   11.9680   27.3210 N.3    92  LEU92      -0.1231
     90  CA        37.6480   11.7520   27.0240 C.3    92  LEU92       0.1693
     91  C         37.2120   10.2580   26.9390 C.2    92  LEU92       0.2593
     92  O         36.3500    9.9310   26.1940 O.2    92  LEU92      -0.2718
     93  CB        37.1990   12.6350   25.8170 C.3    92  LEU92       0.0284
     94  CG        37.4650   14.1670   26.0420 C.3    92  LEU92       0.0019
     95  CD1       38.6660   14.5640   25.2530 C.3    92  LEU92       0.0001
     96  CD2       36.4200   15.0270   25.5680 C.3    92  LEU92       0.0001
     97  N         37.7640    9.4120   27.8070 N.am   93  GLY93      -0.1942
     98  CA        37.3680    8.0350   27.9980 C.3    93  GLY93       0.2014
     99  C         38.0450    7.1480   26.9440 C.2    93  GLY93       0.2639
    100  O         37.6510    5.9690   26.7940 O.2    93  GLY93      -0.2714
    101  N         39.0320    7.6800   26.1990 N.am   94  THR94      -0.1950
    102  CA        39.5900    6.9380   25.0580 C.3    94  THR94       0.1897
    103  C         40.9370    6.4010   25.4930 C.2    94  THR94       0.2313
    104  O         41.4710    6.8160   26.5310 O.2    94  THR94      -0.2863
    105  CB        39.7790    7.8140   23.8020 C.3    94  THR94       0.1794
    106  OG1       40.6820    8.8980   24.1060 O.3    94  THR94      -0.2208
    107  CG2       38.4780    8.4860   23.3180 C.3    94  THR94       0.0378
    108  N         39.9050    4.5030   17.7530 N.3   120  GLY120     -0.1225
    109  CA        39.3000    4.8660   19.0190 C.3   120  GLY120      0.1811
    110  C         39.4160    6.3320   19.4150 C.2   120  GLY120      0.2280
    111  O         39.0530    6.7360   20.4970 O.2   120  GLY120     -0.2866
    112  N         36.7080   11.2320   18.3500 N.3   123  PHE123     -0.1241
    113  CA        36.5090   12.6080   18.8920 C.3   123  PHE123      0.1605
    114  C         37.3230   13.6810   18.1740 C.2   123  PHE123      0.2264
    115  O         36.7670   14.6340   17.6100 O.2   123  PHE123     -0.2867
    116  CB        36.6860   12.6980   20.4550 C.3   123  PHE123      0.0534
    117  CG        36.7360   14.1070   20.9760 C.ar  123  PHE123     -0.0203
    118  CD1       35.5540   14.8580   21.0890 C.ar  123  PHE123     -0.0042
    119  CD2       37.9670   14.6950   21.3400 C.ar  123  PHE123     -0.0042
    120  CE1       35.5940   16.2000   21.5400 C.ar  123  PHE123     -0.0003
    121  CE2       38.0540   16.0340   21.8090 C.ar  123  PHE123     -0.0003
    122  CZ        36.8530   16.8060   21.8890 C.ar  123  PHE123     -0.0000
    123  N         33.0550   20.2810   25.6930 N.3   135  VAL135     -0.1245
    124  CA        32.2360   19.1020   26.0640 C.3   135  VAL135      0.1561
    125  C         31.6540   19.3410   27.4630 C.2   135  VAL135      0.2260
    126  O         32.3870   19.5500   28.4310 O.2   135  VAL135     -0.2867
    127  CB        33.0810   17.8110   26.0200 C.3   135  VAL135      0.0252
    128  CG1       32.3130   16.6690   26.4980 C.3   135  VAL135      0.0019
    129  CG2       33.5660   17.5610   24.6090 C.3   135  VAL135      0.0019
    130  N         27.9350   12.5400   34.7160 N.3   139  HIS139     -0.1241
    131  CA        27.9190   11.0590   34.9440 C.3   139  HIS139      0.1621
    132  C         27.1490   10.8940   36.2400 C.2   139  HIS139      0.2264
    133  O         27.1130   11.8350   37.0450 O.2   139  HIS139     -0.2867
    134  CB        29.3580   10.5560   35.1270 C.3   139  HIS139      0.0745
    135  CG        29.5140    9.0590   35.2100 C.ar  139  HIS139      0.0817
    136  ND1       29.2980    8.3320   36.3720 N.ar  139  HIS139     -0.2268
    137  CD2       29.9030    8.1590   34.2790 C.ar  139  HIS139      0.1154
    138  CE1       29.5390    7.0550   36.1520 C.ar  139  HIS139      0.1986
    139  NE2       29.8890    6.9170   34.8860 N.ar  139  HIS139     -0.2212
    140  N         26.2080   13.6590   27.7160 N.3   169  THR169     -0.1218
    141  CA        27.2940   14.4430   27.1700 C.3   169  THR169      0.1862
    142  C         26.7870   15.3370   26.0250 C.2   169  THR169      0.2287
    143  O         25.9580   14.9170   25.1750 O.2   169  THR169     -0.2866
    144  CB        28.3720   13.4590   26.5960 C.3   169  THR169      0.1770
    145  OG1       28.8540   12.5880   27.6400 O.3   169  THR169     -0.2211
    146  CG2       29.6350   14.1800   26.0800 C.3   169  THR169      0.0375
    147  N         28.4080   18.0460   23.1300 N.3   171  VAL171     -0.1245
    148  CA        29.6190   18.4390   22.3950 C.3   171  VAL171      0.1561
    149  C         29.1760   19.6110   21.5520 C.2   171  VAL171      0.2260
    150  O         28.4090   19.4420   20.6380 O.2   171  VAL171     -0.2867
    151  CB        30.2420   17.2690   21.4970 C.3   171  VAL171      0.0252
    152  CG1       31.4760   17.7290   20.7520 C.3   171  VAL171      0.0019
    153  CG2       30.6290   16.0320   22.3380 C.3   171  VAL171      0.0019
@<TRIPOS>BOND
     1     1     2    1
     2     5     6    1
     3     5     2    1
     4     6     7    1
     5     6     8    1
     6     2     3    1
     7    52    50    1
     8    50    49    1
     9   115   114    2
    10     3     4    2
    11   108   109    1
    12   114   113    1
    13   112   113    1
    14   113   116    1
    15    49    51    1
    16    49    46    1
    17     9    10    1
    18   109   110    1
    19   110   111    2
    20    45    46    1
    21    46    47    1
    22    15    14    2
    23    14    16   am
    24    14    13    1
    25    10    13    1
    26    10    11    1
    27   116   117    1
    28    29    28   ar
    29   150   149    2
    30   152   151    1
    31    30    28   ar
    32    21    22    1
    33    21    18    1
    34    17    11   am
    35    17    18    1
    36   117   118   ar
    37   117   119   ar
    38    47    48    2
    39   118   120   ar
    40    28    27    1
    41    11    12    2
    42   119   121   ar
    43   151   153    1
    44   151   148    1
    45   120   122   ar
    46   149   148    1
    47    23    24    1
    48    18    19    1
    49   121   122   ar
    50    19    20    2
    51   148   147    1
    52    27    24    1
    53    24    25    1
    54   107   105    1
    55    57    54    1
    56    57    58    1
    57    60    58   ar
    58   105   106    1
    59   105   102    1
    60    53    54    1
    61    25    31   am
    62    25    26    2
    63    54    55    1
    64    58    59   ar
    65    31    32    1
    66   129   127    1
    67   102   103    1
    68   102   101    1
    69   143   142    2
    70    95    94    1
    71   103   104    2
    72    96    94    1
    73    32    35    1
    74    32    33    1
    75    55    56    2
    76   123   124    1
    77    93    94    1
    78    93    90    1
    79   127   124    1
    80   127   128    1
    81   142   141    1
    82   124   125    1
    83   146   144    1
    84    33    34    2
    85    92    91    2
    86   101    99   am
    87   144   141    1
    88   144   145    1
    89   100    99    2
    90    91    90    1
    91    91    97   am
    92    99    98    1
    93    90    89    1
    94    36    37    1
    95    43    44    1
    96    43    42    1
    97   141   140    1
    98   125   126    2
    99    80    79    1
   100    41    42    1
   101    41    40    1
   102    97    98    1
   103    79    78    1
   104    37    40    1
   105    37    38    1
   106    61    62    1
   107    38    39    2
   108    78    77    2
   109    67    65    1
   110    69    70    1
   111    69    63   am
   112    84    83    2
   113    70    71    1
   114    62    65    1
   115    62    63    1
   116    65    66    1
   117    77    74    1
   118    71    72    2
   119    71    73   am
   120    63    64    2
   121    83    82    1
   122    73    74    1
   123    74    75    1
   124    85    82    1
   125    85    86    1
   126    66    68    1
   127    82    81    1
   128    86    87   ar
   129    86    88   ar
   130    75    76    2
   131   137   139   ar
   132   137   135   ar
   133   130   131    1
   134   139   138   ar
   135   131   134    1
   136   131   132    1
   137   134   135    1
   138   135   136   ar
   139   138   136   ar
   140   132   133    2
