@<TRIPOS>MOLECULE
tmp/2ccuA00.pdb
 188 174 0 0 0
SMALL
GASTEIGER

@<TRIPOS>ATOM
      1  N         31.2300   10.6340   13.5110 N.3    32  GLU32      -0.1231
      2  CA        32.1570   10.1570   14.5480 C.3    32  GLU32       0.1699
      3  C         31.6630   10.4600   15.9330 C.2    32  GLU32       0.2592
      4  O         31.9110    9.7050   16.8830 O.2    32  GLU32      -0.2718
      5  CB        33.5670   10.7140   14.3730 C.3    32  GLU32       0.0402
      6  CG        34.3540   10.1660   13.1910 C.3    32  GLU32       0.1161
      7  CD        34.5920    8.6490   13.2460 C.2    32  GLU32       0.3649
      8  OE1       34.5160    8.1220   14.3700 O.co2  32  GLU32      -0.2457
      9  OE2       34.8200    7.9840   12.1820 O.co2  32  GLU32      -0.2457
     10  N         30.9230   11.5490   16.0350 N.am   33  LEU33      -0.1980
     11  CA        30.5040   12.0460   17.3360 C.3    33  LEU33       0.1596
     12  C         29.1860   11.3890   17.6910 C.2    33  LEU33       0.2287
     13  O         28.9220   11.0900   18.8710 O.2    33  LEU33      -0.2864
     14  CB        30.3920   13.5660   17.3290 C.3    33  LEU33       0.0297
     15  CG        31.6250   14.4050   17.0180 C.3    33  LEU33       0.0022
     16  CD1       31.1390   15.8090   16.7670 C.3    33  LEU33       0.0001
     17  CD2       32.7170   14.3790   18.1130 C.3    33  LEU33       0.0001
     18  N         28.6240    8.2420   16.6210 N.3    35  SER35      -0.1202
     19  CA        29.0450    6.9040   17.0030 C.3    35  SER35       0.2020
     20  C         29.4890    6.8100   18.4300 C.2    35  SER35       0.2619
     21  O         29.2970    5.7740   19.0500 O.2    35  SER35      -0.2717
     22  CB        30.1910    6.4230   16.1410 C.3    35  SER35       0.2103
     23  OG        29.7990    5.2640   15.4300 O.3    35  SER35      -0.2182
     24  N         30.1070    7.8880   18.9070 N.am   36  ASN36      -0.1960
     25  CA        30.4880    8.0630   20.2760 C.3    36  ASN36       0.1819
     26  C         29.3370    8.0800   21.2690 C.2    36  ASN36       0.2622
     27  O         29.3990    7.3920   22.3080 O.2    36  ASN36      -0.2715
     28  CB        31.1650    9.4160   20.3840 C.3    36  ASN36       0.1195
     29  CG        32.6560    9.3480   20.1250 C.2    36  ASN36       0.2630
     30  OD1       33.1380    8.3720   19.5400 O.2    36  ASN36      -0.2716
     31  ND2       33.3930   10.3980   20.5390 N.am   36  ASN36      -0.0877
     32  N         28.3360    8.9310   20.9950 N.am   37  SER37      -0.1936
     33  CA        27.1220    9.0280   21.8390 C.3    37  SER37       0.2055
     34  C         26.4430    7.6870   21.8210 C.2    37  SER37       0.2644
     35  O         26.1470    7.1330   22.8830 O.2    37  SER37      -0.2714
     36  CB        26.0890   10.0720   21.3490 C.3    37  SER37       0.2130
     37  OG        26.6560   11.3030   21.0310 O.3    37  SER37      -0.2179
     38  N         26.1730    7.2040   20.6040 N.am   38  SER38      -0.1935
     39  CA        25.7250    5.8270   20.3620 C.3    38  SER38       0.2055
     40  C         26.4270    4.7870   21.2850 C.2    38  SER38       0.2643
     41  O         25.7660    3.9700   21.9450 O.2    38  SER38      -0.2714
     42  CB        25.9240    5.4550   18.9030 C.3    38  SER38       0.2130
     43  OG        25.3860    4.1800   18.7110 O.3    38  SER38      -0.2179
     44  N         27.7540    4.8410   21.3490 N.am   39  ASP39      -0.1957
     45  CA        28.5120    4.1210   22.3630 C.3    39  ASP39       0.1840
     46  C         28.2010    4.4150   23.8820 C.2    39  ASP39       0.2621
     47  O         28.3010    3.5100   24.7370 O.2    39  ASP39      -0.2715
     48  CB        30.0100    4.2820   22.1110 C.3    39  ASP39       0.1450
     49  CG        30.8300    3.5400   23.1460 C.2    39  ASP39       0.3671
     50  OD1       30.6670    2.3020   23.2400 O.co2  39  ASP39      -0.2456
     51  OD2       31.6180    4.0930   23.9540 O.co2  39  ASP39      -0.2456
     52  N         27.8740    5.6670   24.2080 N.am   40  ALA40      -0.1977
     53  CA        27.5930    6.0290   25.6010 C.3    40  ALA40       0.1597
     54  C         26.2110    5.6240   26.0450 C.2    40  ALA40       0.2287
     55  O         26.0290    5.2560   27.1770 O.2    40  ALA40      -0.2864
     56  CB        27.8460    7.5140   25.8990 C.3    40  ALA40       0.0319
     57  N         24.6370    3.0330   24.8960 N.3    42  ASP42      -0.1225
     58  CA        24.8200    1.5960   24.9830 C.3    42  ASP42       0.1805
     59  C         25.2190    1.1790   26.3680 C.2    42  ASP42       0.2597
     60  O         24.7850    0.1450   26.8660 O.2    42  ASP42      -0.2718
     61  CB        25.9680    1.1990   24.0850 C.3    42  ASP42       0.1424
     62  CG        25.5310    0.7070   22.7420 C.2    42  ASP42       0.3668
     63  OD1       24.3200    0.7560   22.3850 O.co2  42  ASP42      -0.2456
     64  OD2       26.3890    0.2490   21.9640 O.co2  42  ASP42      -0.2456
     65  N         26.0850    2.0050   26.9590 N.am   43  LYS43      -0.1979
     66  CA        26.7390    1.7940   28.2480 C.3    43  LYS43       0.1596
     67  C         25.7880    2.0010   29.4110 C.2    43  LYS43       0.2287
     68  O         25.7770    1.1920   30.3130 O.2    43  LYS43      -0.2864
     69  CB        27.9980    2.6850   28.3600 C.3    43  LYS43       0.0298
     70  CG        29.3350    1.9690   28.0430 C.3    43  LYS43       0.0038
     71  CD        30.4060    2.8890   27.4570 C.3    43  LYS43       0.0206
     72  CE        31.2060    2.1660   26.3720 C.3    43  LYS43       0.1093
     73  NZ        32.6310    1.8650   26.7770 N.3    43  LYS43      -0.1314
     74  N         25.7690   18.3970   19.5110 N.3    76  ILE76      -0.1245
     75  CA        25.3760   16.9920   19.4690 C.3    76  ILE76       0.1561
     76  C         25.3330   16.5350   20.9190 C.2    76  ILE76       0.2260
     77  O         26.4110   16.2620   21.4940 O.2    76  ILE76      -0.2867
     78  CB        26.4500   16.1060   18.6870 C.3    76  ILE76       0.0252
     79  CG1       26.6240   16.5890   17.2610 C.3    76  ILE76       0.0019
     80  CG2       26.2130   14.5490   18.7870 C.3    76  ILE76       0.0019
     81  CD1       27.6290   17.7610   17.0980 C.3    76  ILE76       0.0001
     82  N         23.4490   14.0370   23.9560 N.3    78  ASP78      -0.1239
     83  CA        22.9370   12.6660   24.1960 C.3    78  ASP78       0.1674
     84  C         22.6260   12.4390   25.6760 C.2    78  ASP78       0.2266
     85  O         23.0550   13.2280   26.5420 O.2    78  ASP78      -0.2867
     86  CB        23.8980   11.5770   23.6990 C.3    78  ASP78       0.1410
     87  CG        25.1740   11.4850   24.5330 C.2    78  ASP78       0.3668
     88  OD1       25.1000   11.1650   25.7400 O.co2  78  ASP78      -0.2456
     89  OD2       26.3040   11.7270   24.0620 O.co2  78  ASP78      -0.2456
     90  N         25.6250    7.4900   29.3080 N.3    81  ILE81      -0.1231
     91  CA        26.1360    7.4020   30.6900 C.3    81  ILE81       0.1692
     92  C         26.8930    8.6910   31.2250 C.2    81  ILE81       0.2593
     93  O         26.8150    9.0360   32.4180 O.2    81  ILE81      -0.2718
     94  CB        26.9530    6.0320   30.9090 C.3    81  ILE81       0.0266
     95  CG1       26.8400    5.5260   32.3640 C.3    81  ILE81       0.0019
     96  CG2       28.4110    6.1660   30.4820 C.3    81  ILE81       0.0020
     97  CD1       27.6770    4.2660   32.7290 C.3    81  ILE81       0.0001
     98  N         27.6010    9.3920   30.3440 N.am   82  GLY82      -0.1942
     99  CA        28.3350   10.5700   30.7570 C.3    82  GLY82       0.2014
    100  C         29.7590   10.2440   31.1980 C.2    82  GLY82       0.2638
    101  O         30.1620    9.0650   31.3870 O.2    82  GLY82      -0.2714
    102  N         30.5570   11.2870   31.3450 N.am   83  MET83      -0.1976
    103  CA        31.9230   11.0640   31.7730 C.3    83  MET83       0.1605
    104  C         32.1090   11.6370   33.1700 C.2    83  MET83       0.2287
    105  O         31.4920   12.6620   33.4660 O.2    83  MET83      -0.2864
    106  CB        32.8860   11.6400   30.7420 C.3    83  MET83       0.0413
    107  CG        32.9750   10.7720   29.5190 C.3    83  MET83       0.0598
    108  SD        33.8310   11.5130   28.1520 S.3    83  MET83      -0.1393
    109  CE        32.8320   12.9430   27.7900 C.3    83  MET83       0.0692
    110  N         37.4160   10.8080   33.7430 N.3    87  ASP87      -0.1239
    111  CA        37.3060   10.4280   32.3350 C.3    87  ASP87       0.1674
    112  C         37.7150   11.5750   31.4070 C.2    87  ASP87       0.2266
    113  O         38.6040   11.4270   30.5700 O.2    87  ASP87      -0.2867
    114  CB        35.8990    9.9200   31.9670 C.3    87  ASP87       0.1410
    115  CG        35.4710    8.6660   32.7510 C.2    87  ASP87       0.3668
    116  OD1       36.3520    7.9860   33.3090 O.co2  87  ASP87      -0.2456
    117  OD2       34.2780    8.2820   32.8650 O.co2  87  ASP87      -0.2456
    118  N         38.8220   11.8880   27.3270 N.3    92  LEU92      -0.1231
    119  CA        37.3770   11.7060   27.2270 C.3    92  LEU92       0.1693
    120  C         37.0760   10.2130   27.1030 C.2    92  LEU92       0.2593
    121  O         36.3750    9.7820   26.1800 O.2    92  LEU92      -0.2718
    122  CB        36.7920   12.4960   26.0350 C.3    92  LEU92       0.0284
    123  CG        37.0100   14.0060   25.9250 C.3    92  LEU92       0.0019
    124  CD1       38.4570   14.3900   25.8570 C.3    92  LEU92       0.0001
    125  CD2       36.3400   14.4280   24.6740 C.3    92  LEU92       0.0001
    126  N         37.6520    9.4400   28.0290 N.am   93  GLY93      -0.1942
    127  CA        37.5230    7.9990   28.0700 C.3    93  GLY93       0.2014
    128  C         38.0950    7.1800   26.9050 C.2    93  GLY93       0.2639
    129  O         37.7700    5.9760   26.8250 O.2    93  GLY93      -0.2714
    130  N         38.9120    7.7920   26.0160 N.am   94  THR94      -0.1950
    131  CA        39.5420    7.0750   24.8790 C.3    94  THR94       0.1897
    132  C         40.9230    6.4560   25.2660 C.2    94  THR94       0.2313
    133  O         41.4060    6.6790   26.3830 O.2    94  THR94      -0.2863
    134  CB        39.5460    7.9200   23.4990 C.3    94  THR94       0.1794
    135  OG1       40.4040    9.0540   23.5910 O.3    94  THR94      -0.2208
    136  CG2       38.1630    8.5360   23.1320 C.3    94  THR94       0.0378
    137  N         37.8580    6.5580   13.5400 N.3   117  GLY117     -0.1225
    138  CA        37.0830    5.8750   14.5660 C.3   117  GLY117      0.1811
    139  C         37.4440    4.4160   14.8200 C.2   117  GLY117      0.2280
    140  O         37.0460    3.8670   15.8620 O.2   117  GLY117     -0.2866
    141  N         39.7510    4.1660   17.9650 N.3   120  GLY120     -0.1225
    142  CA        39.1550    4.6240   19.2150 C.3   120  GLY120      0.1811
    143  C         39.3190    6.1170   19.4860 C.2   120  GLY120      0.2280
    144  O         39.2130    6.5350   20.6300 O.2   120  GLY120     -0.2866
    145  N         37.8620    8.8170   17.1990 N.3   122  GLY122     -0.1210
    146  CA        36.9530    9.6400   16.4190 C.3   122  GLY122      0.1956
    147  C         36.6370   11.0290   16.9400 C.2   122  GLY122      0.2611
    148  O         36.4070   11.9210   16.1440 O.2   122  GLY122     -0.2717
    149  N         36.6250   11.2210   18.2630 N.am  123  PHE123     -0.1976
    150  CA        36.2290   12.5200   18.8270 C.3   123  PHE123      0.1639
    151  C         36.9100   13.6870   18.1680 C.2   123  PHE123      0.2290
    152  O         36.2580   14.6520   17.8380 O.2   123  PHE123     -0.2864
    153  CB        36.4160   12.5990   20.3480 C.3   123  PHE123      0.0560
    154  CG        36.5080   14.0060   20.8770 C.ar  123  PHE123     -0.0200
    155  CD1       35.3740   14.7540   21.0920 C.ar  123  PHE123     -0.0042
    156  CD2       37.7390   14.5730   21.1800 C.ar  123  PHE123     -0.0042
    157  CE1       35.4470   16.0530   21.5710 C.ar  123  PHE123     -0.0003
    158  CE2       37.8480   15.8940   21.6780 C.ar  123  PHE123     -0.0003
    159  CZ        36.6940   16.6420   21.8590 C.ar  123  PHE123     -0.0000
    160  N         32.7580   20.6380   25.7350 N.3   135  VAL135     -0.1245
    161  CA        32.1220   19.3500   26.0170 C.3   135  VAL135      0.1561
    162  C         31.4790   19.4230   27.3760 C.2   135  VAL135      0.2260
    163  O         32.1650   19.6010   28.3680 O.2   135  VAL135     -0.2867
    164  CB        33.0650   18.1490   25.8800 C.3   135  VAL135      0.0252
    165  CG1       32.4970   16.9620   26.5350 C.3   135  VAL135      0.0019
    166  CG2       33.2440   17.8360   24.4590 C.3   135  VAL135      0.0019
    167  N         26.0310   13.8710   27.5510 N.3   169  THR169     -0.1218
    168  CA        27.1280   14.6500   27.0340 C.3   169  THR169      0.1862
    169  C         26.7030   15.5860   25.8660 C.2   169  THR169      0.2287
    170  O         25.9100   15.2270   24.9760 O.2   169  THR169     -0.2866
    171  CB        28.2420   13.6430   26.6490 C.3   169  THR169      0.1770
    172  OG1       28.5570   12.8190   27.7840 O.3   169  THR169     -0.2211
    173  CG2       29.5500   14.3400   26.3460 C.3   169  THR169      0.0375
    174  N         28.2600   18.1070   23.0290 N.3   171  VAL171     -0.1245
    175  CA        29.4710   18.5130   22.3280 C.3   171  VAL171      0.1561
    176  C         29.1560   19.7030   21.4710 C.2   171  VAL171      0.2260
    177  O         28.4180   19.6490   20.4730 O.2   171  VAL171     -0.2867
    178  CB        30.0860   17.4450   21.4680 C.3   171  VAL171      0.0252
    179  CG1       31.4670   17.9270   20.9380 C.3   171  VAL171      0.0019
    180  CG2       30.2710   16.1730   22.2320 C.3   171  VAL171      0.0019
    181  N         22.0800    3.6510   13.3770 N.3   199  ILE199     -0.1245
    182  CA        22.4940    3.9210   14.7260 C.3   199  ILE199      0.1561
    183  C         21.2400    3.6260   15.5320 C.2   199  ILE199      0.2260
    184  O         20.1910    4.2320   15.3260 O.2   199  ILE199     -0.2867
    185  CB        23.0590    5.3900   14.8500 C.3   199  ILE199      0.0252
    186  CG1       24.5420    5.4860   14.3600 C.3   199  ILE199      0.0019
    187  CG2       22.8970    5.9370   16.2570 C.3   199  ILE199      0.0019
    188  CD1       25.5370    4.3110   14.7980 C.3   199  ILE199      0.0001
@<TRIPOS>BOND
     1     9     7   ar
     2     6     7    1
     3     6     5    1
     4     7     8   ar
     5   181   182    1
     6     1     2    1
     7   137   138    1
     8   186   188    1
     9   186   185    1
    10     5     2    1
    11     2     3    1
    12   138   139    1
    13   182   185    1
    14   182   183    1
    15   139   140    2
    16   185   187    1
    17   184   183    2
    18    23    22    1
    19     3    10   am
    20     3     4    2
    21    10    11    1
    22    22    19    1
    23   148   147    2
    24   146   147    1
    25   146   145    1
    26    18    19    1
    27    16    15    1
    28   147   149   am
    29    19    20    1
    30    15    14    1
    31    15    17    1
    32    81    79    1
    33    79    78    1
    34    14    11    1
    35    11    12    1
    36    12    13    2
    37   152   151    2
    38   141   142    1
    39   151   150    1
    40   149   150    1
    41    20    24   am
    42    20    21    2
    43    78    80    1
    44    78    75    1
    45    43    42    1
    46   150   153    1
    47    42    39    1
    48    24    25    1
    49   142   143    1
    50    75    74    1
    51    75    76    1
    52   143   144    2
    53    30    29    2
    54    29    28    1
    55    29    31   am
    56    25    28    1
    57    25    26    1
    58   153   154    1
    59    39    38    1
    60    39    40    1
    61   177   176    2
    62    38    34   am
    63   154   155   ar
    64   154   156   ar
    65    76    77    2
    66   179   178    1
    67    32    26   am
    68    32    33    1
    69    37    36    1
    70   155   157   ar
    71   156   158   ar
    72    26    27    2
    73    40    44   am
    74    40    41    2
    75    36    33    1
    76    44    45    1
    77   178   180    1
    78   178   175    1
    79   176   175    1
    80   157   159   ar
    81   158   159   ar
    82    34    33    1
    83    34    35    2
    84    64    62   ar
    85    48    45    1
    86    48    49    1
    87   175   174    1
    88    45    46    1
    89    63    62   ar
    90    62    61    1
    91   136   134    1
    92    49    50   ar
    93    49    51   ar
    94   134   135    1
    95   134   131    1
    96    86    83    1
    97    86    87    1
    98    46    52   am
    99    46    47    2
   100    82    83    1
   101    89    87   ar
   102    61    58    1
   103    83    84    1
   104    52    53    1
   105   166   164    1
   106    87    88   ar
   107   125   123    1
   108   131   132    1
   109   131   130    1
   110    57    58    1
   111   170   169    2
   112    58    59    1
   113   132   133    2
   114    53    56    1
   115    53    54    1
   116    84    85    2
   117   160   161    1
   118   124   123    1
   119   169   168    1
   120   164   161    1
   121   164   165    1
   122   123   122    1
   123   130   128   am
   124   161   162    1
   125   122   119    1
   126    54    55    2
   127   121   120    2
   128   173   171    1
   129    59    60    2
   130    59    65   am
   131    72    73    1
   132    72    71    1
   133   171   168    1
   134   171   172    1
   135   129   128    2
   136   128   127    1
   137    65    66    1
   138   168   167    1
   139   120   119    1
   140   120   126   am
   141   119   118    1
   142   162   163    2
   143    71    70    1
   144   109   108    1
   145   126   127    1
   146    70    69    1
   147   108   107    1
   148    66    69    1
   149    66    67    1
   150    90    91    1
   151    67    68    2
   152   107   106    1
   153    98    99    1
   154    98    92   am
   155    96    94    1
   156   113   112    2
   157    91    94    1
   158    91    92    1
   159   106   103    1
   160    99   100    1
   161    94    95    1
   162   100   102   am
   163   100   101    2
   164    92    93    2
   165   102   103    1
   166   112   111    1
   167   103   104    1
   168   114   111    1
   169   114   115    1
   170   111   110    1
   171    95    97    1
   172   115   117   ar
   173   115   116   ar
   174   104   105    2
