@<TRIPOS>MOLECULE
tmp/2ccyA00.pdb
 207 201 0 0 0
SMALL
GASTEIGER

@<TRIPOS>ATOM
      1  N          1.5760   17.7890   14.5960 N.3     8  LEU8       -0.1245
      2  CA         2.1380   18.3700   15.8580 C.3     8  LEU8        0.1561
      3  C          3.1830   17.3780   16.3980 C.2     8  LEU8        0.2260
      4  O          4.0380   17.7930   17.1620 O.2     8  LEU8       -0.2867
      5  CB         0.9470   18.5790   16.8680 C.3     8  LEU8        0.0270
      6  CG         1.3580   19.3750   18.0780 C.3     8  LEU8        0.0019
      7  CD1        1.8300   20.7900   17.8250 C.3     8  LEU8        0.0001
      8  CD2        0.2220   19.3720   19.0970 C.3     8  LEU8        0.0001
      9  N          6.6160   18.2800   14.8570 N.3    11  ARG11      -0.1231
     10  CA         7.1080   19.5060   15.4590 C.3    11  ARG11       0.1694
     11  C          7.5710   19.1940   16.8810 C.2    11  ARG11       0.2588
     12  O          8.7320   19.5160   17.2540 O.2    11  ARG11      -0.2718
     13  CB         6.0520   20.6880   15.5820 C.3    11  ARG11       0.0321
     14  CG         6.5690   21.9390   16.3390 C.3    11  ARG11       0.0489
     15  CD         5.5240   23.0790   16.4290 C.3    11  ARG11       0.2205
     16  NE         4.9330   23.1740   15.0570 N.pl3  11  ARG11      -0.0865
     17  CZ         3.8640   24.0060   14.8590 C.cat  11  ARG11       0.5346
     18  NH1        3.4360   24.2990   13.6840 N.pl3  11  ARG11       0.1354
     19  NH2        3.1110   24.3040   15.9170 N.pl3  11  ARG11       0.1354
     20  N          6.7170   18.6210   17.6750 N.am   12  GLN12      -0.2033
     21  CA         7.1070   18.4130   19.0620 C.3    12  GLN12       0.1287
     22  C          8.1740   17.3350   19.1100 C.3    12  GLN12       0.2036
     23  O          8.8790   17.3290   20.1610 O.3    12  GLN12      -0.2185
     24  CB         5.9480   18.1620   20.0190 C.3    12  GLN12       0.0340
     25  CG         5.0150   19.3730   20.0130 C.3    12  GLN12       0.0904
     26  CD         3.8330   19.1680   21.0060 C.2    12  GLN12       0.2608
     27  OE1        3.4390   18.0110   21.2580 O.2    12  GLN12      -0.2717
     28  NE2        3.2400   20.3540   21.2780 N.am   12  GLN12      -0.0878
     29  N         11.6480   18.6270   18.7160 N.3    15  MET15      -0.1230
     30  CA        12.0650   19.3790   19.8950 C.3    15  MET15       0.1702
     31  C         12.4660   18.4080   20.9900 C.2    15  MET15       0.2589
     32  O         13.3340   18.6570   21.8330 O.2    15  MET15      -0.2718
     33  CB        10.8850   20.3010   20.2960 C.3    15  MET15       0.0401
     34  CG        10.6350   21.4210   19.3950 C.3    15  MET15       0.0596
     35  SD        12.0500   22.5140   18.9830 S.3    15  MET15      -0.1393
     36  CE        12.6350   21.7750   17.5110 C.3    15  MET15       0.0692
     37  N         11.7930   17.2450   21.0970 N.am   16  GLN16      -0.2033
     38  CA        12.1760   16.2520   22.0750 C.3    16  GLN16       0.1287
     39  C         13.5920   15.6950   21.5850 C.3    16  GLN16       0.2036
     40  O         14.2000   15.3050   22.5800 O.3    16  GLN16      -0.2185
     41  CB        11.2560   15.0050   22.2390 C.3    16  GLN16       0.0340
     42  CG         9.9750   15.5190   22.9260 C.3    16  GLN16       0.0904
     43  CD        10.2130   15.9460   24.3470 C.2    16  GLN16       0.2608
     44  OE1       11.0020   15.3450   25.1120 O.2    16  GLN16      -0.2717
     45  NE2        9.4260   16.9370   24.7930 N.am   16  GLN16      -0.0878
     46  N         15.9380   17.3280   20.0530 N.3    18  LEU18      -0.1231
     47  CA        16.8120   18.4040   20.5160 C.3    18  LEU18       0.1693
     48  C         17.1040   18.3570   22.0130 C.2    18  LEU18       0.2591
     49  O         18.2870   18.2780   22.4700 O.2    18  LEU18      -0.2718
     50  CB        16.2740   19.7670   20.0270 C.3    18  LEU18       0.0284
     51  CG        17.0250   21.0180   20.3630 C.3    18  LEU18       0.0019
     52  CD1       18.2340   20.8240   19.3260 C.3    18  LEU18       0.0001
     53  CD2       16.1820   22.1850   19.7450 C.3    18  LEU18       0.0001
     54  N         16.1020   18.2650   22.8830 N.am   19  LYS19      -0.1980
     55  CA        16.2610   18.2120   24.3160 C.3    19  LYS19       0.1596
     56  C         17.0360   16.9650   24.6970 C.2    19  LYS19       0.2287
     57  O         17.8780   17.1090   25.5670 O.2    19  LYS19      -0.2864
     58  CB        14.8990   18.0930   24.9990 C.3    19  LYS19       0.0298
     59  CG        14.9670   17.7670   26.4860 C.3    19  LYS19       0.0038
     60  CD        13.5830   18.0210   27.0370 C.3    19  LYS19       0.0206
     61  CE        13.4310   17.2970   28.3300 C.3    19  LYS19       0.1093
     62  NZ        12.1540   17.6860   28.9800 N.3    19  LYS19      -0.1314
     63  N         20.6760   17.8150   24.2360 N.3    22  TRP22      -0.1241
     64  CA        21.1270   19.0210   24.9090 C.3    22  TRP22       0.1605
     65  C         21.2970   18.7990   26.3960 C.2    22  TRP22       0.2264
     66  O         22.2090   19.2670   27.0740 O.2    22  TRP22      -0.2867
     67  CB        20.1670   20.1460   24.5720 C.3    22  TRP22       0.0550
     68  CG        20.2570   21.3210   25.4350 C.ar   22  TRP22       0.0003
     69  CD1       19.3380   21.8380   26.3320 C.ar   22  TRP22       0.0946
     70  CD2       21.3940   22.2380   25.4990 C.ar   22  TRP22       0.0152
     71  NE1       19.8130   22.9600   26.9370 N.ar   22  TRP22      -0.2442
     72  CE2       21.0930   23.2300   26.4430 C.ar   22  TRP22       0.0810
     73  CE3       22.6800   22.1610   24.8990 C.ar   22  TRP22       0.0012
     74  CZ2       21.9710   24.2060   26.8520 C.ar   22  TRP22       0.0191
     75  CZ3       23.5660   23.1610   25.2810 C.ar   22  TRP22       0.0001
     76  CH2       23.2210   24.2000   26.2170 C.ar   22  TRP22       0.0015
     77  N         22.4040   18.0630   17.5350 N.3    46  MET46      -0.1301
     78  CA        21.6270   19.3180   17.6920 C.3    46  MET46       0.1256
     79  C         21.7330   20.1150   16.4240 C.3    46  MET46       0.2010
     80  O         20.6450   20.7330   16.1780 O.3    46  MET46      -0.2188
     81  CB        22.1510   20.1710   18.8330 C.3    46  MET46       0.0333
     82  CG        21.8510   19.5170   20.1220 C.3    46  MET46       0.0592
     83  SD        22.7810   20.2870   21.5020 S.3    46  MET46      -0.1393
     84  CE        22.1830   21.9580   21.3810 C.3    46  MET46       0.0692
     85  N          7.2860   23.8990   11.1240 N.3    57  TRP57      -0.1241
     86  CA         6.4950   25.1640   11.2010 C.3    57  TRP57       0.1605
     87  C          6.1770   25.5540    9.7690 C.2    57  TRP57       0.2264
     88  O          6.1040   26.7450    9.5160 O.2    57  TRP57      -0.2867
     89  CB         7.2710   26.1770   12.0110 C.3    57  TRP57       0.0550
     90  CG         7.2780   26.0010   13.4740 C.ar   57  TRP57       0.0003
     91  CD1        6.4950   26.6430   14.4030 C.ar   57  TRP57       0.0946
     92  CD2        8.2080   25.2740   14.2960 C.ar   57  TRP57       0.0152
     93  NE1        6.7340   26.2880   15.6530 N.ar   57  TRP57      -0.2442
     94  CE2        7.8520   25.4250   15.6430 C.ar   57  TRP57       0.0810
     95  CE3        9.3050   24.4260   13.9310 C.ar   57  TRP57       0.0012
     96  CZ2        8.5240   24.8740   16.7290 C.ar   57  TRP57       0.0191
     97  CZ3        9.9160   23.9030   15.0610 C.ar   57  TRP57       0.0001
     98  CH2        9.5880   24.0240   16.3390 C.ar   57  TRP57       0.0015
     99  N          1.6130   25.4460   20.3250 N.3    68  GLU68      -0.1231
    100  CA         2.1340   26.2980   21.3520 C.3    68  GLU68       0.1699
    101  C          3.0410   27.3490   20.7440 C.2    68  GLU68       0.2592
    102  O          3.8380   27.9140   21.5040 O.2    68  GLU68      -0.2718
    103  CB         2.8690   25.6220   22.4530 C.3    68  GLU68       0.0402
    104  CG         2.1460   24.6430   23.3500 C.3    68  GLU68       0.1161
    105  CD         1.1550   25.2880   24.2920 C.2    68  GLU68       0.3649
    106  OE1        0.9540   26.5110   24.3510 O.co2  68  GLU68      -0.2457
    107  OE2        0.5260   24.3910   24.9500 O.co2  68  GLU68      -0.2457
    108  N          2.7610   27.6790   19.5240 N.am   69  THR69      -0.1953
    109  CA         3.7090   28.7540   18.9500 C.3    69  THR69       0.1897
    110  C          2.8300   29.9750   18.6290 C.2    69  THR69       0.2313
    111  O          1.7180   29.7330   18.0660 O.2    69  THR69      -0.2863
    112  CB         4.2230   28.2120   17.5550 C.3    69  THR69       0.1794
    113  OG1        4.9700   26.9920   17.9000 O.3    69  THR69      -0.2208
    114  CG2        5.0770   29.2060   16.7760 C.3    69  THR69       0.0378
    115  N         12.0570   34.3990   13.3950 N.3    81  PHE81      -0.1298
    116  CA        11.9200   33.0150   13.8470 C.3    81  PHE81       0.1290
    117  C         12.8330   32.0950   13.0340 C.3    81  PHE81       0.2013
    118  O         13.6150   31.4200   13.7000 O.3    81  PHE81      -0.2188
    119  CB        10.4810   32.5680   13.6700 C.3    81  PHE81       0.0480
    120  CG        10.1200   31.2220   14.2880 C.ar   81  PHE81      -0.0206
    121  CD1       10.0360   31.0170   15.6320 C.ar   81  PHE81      -0.0042
    122  CD2        9.8340   30.1920   13.3700 C.ar   81  PHE81      -0.0042
    123  CE1        9.6520   29.7610   16.1540 C.ar   81  PHE81      -0.0003
    124  CE2        9.4050   28.9410   13.8280 C.ar   81  PHE81      -0.0003
    125  CZ         9.3080   28.7500   15.2360 C.ar   81  PHE81      -0.0000
    126  N         16.4270   32.3900   14.1550 N.3    84  GLY84      -0.1210
    127  CA        16.7720   31.7240   15.4300 C.3    84  GLY84       0.1956
    128  C         17.2450   30.2570   15.1330 C.2    84  GLY84       0.2611
    129  O         18.0980   29.7470   15.8460 O.2    84  GLY84      -0.2717
    130  N         16.5890   29.5560   14.1900 N.am   85  TRP85      -0.1976
    131  CA        16.9680   28.1660   13.8760 C.3    85  TRP85       0.1640
    132  C         18.4290   28.1560   13.3460 C.2    85  TRP85       0.2290
    133  O         19.3220   27.3490   13.6300 O.2    85  TRP85      -0.2864
    134  CB        15.9360   27.4750   13.0370 C.3    85  TRP85       0.0576
    135  CG        14.6090   27.3300   13.7590 C.ar   85  TRP85       0.0006
    136  CD1       13.3590   27.7670   13.4020 C.ar   85  TRP85       0.0946
    137  CD2       14.4390   26.5260   14.9340 C.ar   85  TRP85       0.0152
    138  NE1       12.4300   27.3320   14.3190 N.ar   85  TRP85      -0.2442
    139  CE2       13.0310   26.5020   15.2330 C.ar   85  TRP85       0.0810
    140  CE3       15.2750   25.7250   15.6760 C.ar   85  TRP85       0.0012
    141  CZ2       12.5720   25.8300   16.3200 C.ar   85  TRP85       0.0191
    142  CZ3       14.7930   25.0760   16.7730 C.ar   85  TRP85       0.0001
    143  CH2       13.4220   25.1080   17.1290 C.ar   85  TRP85       0.0015
    144  N         20.8080   28.6760   16.1350 N.3    88  LEU88      -0.1245
    145  CA        20.9800   27.4450   16.8840 C.3    88  LEU88       0.1561
    146  C         21.9910   26.5310   16.1640 C.2    88  LEU88       0.2260
    147  O         22.7460   25.8120   16.7800 O.2    88  LEU88      -0.2867
    148  CB        19.6590   26.6630   17.1490 C.3    88  LEU88       0.0270
    149  CG        19.8390   25.4150   18.0140 C.3    88  LEU88       0.0019
    150  CD1       20.2860   25.8090   19.4570 C.3    88  LEU88       0.0001
    151  CD2       18.4390   24.8310   18.2800 C.3    88  LEU88       0.0001
    152  N         24.9360   28.5920   23.7070 N.3   113  THR113     -0.1218
    153  CA        23.9730   27.8600   22.8880 C.3   113  THR113      0.1862
    154  C         22.6110   28.0000   23.5870 C.2   113  THR113      0.2287
    155  O         21.6050   28.1120   22.8300 O.2   113  THR113     -0.2866
    156  CB        24.4490   26.3620   22.8190 C.3   113  THR113      0.1770
    157  OG1       25.7400   26.4570   22.1560 O.3   113  THR113     -0.2211
    158  CG2       23.5150   25.4670   22.0140 C.3   113  THR113      0.0375
    159  N         20.1290   30.7850   23.0190 N.3   116  VAL116     -0.1231
    160  CA        19.3370   30.8220   21.7310 C.3   116  VAL116      0.1692
    161  C         18.0370   30.0750   22.0240 C.2   116  VAL116      0.2592
    162  O         17.0650   30.5930   21.4250 O.2   116  VAL116     -0.2718
    163  CB        20.2100   29.9770   20.7280 C.3   116  VAL116      0.0266
    164  CG1       19.3440   29.8360   19.4830 C.3   116  VAL116      0.0020
    165  CG2       21.4580   30.8170   20.2930 C.3   116  VAL116      0.0020
    166  N         18.0490   29.0310   22.8160 N.am  117  CYS117     -0.1970
    167  CA        16.8100   28.2940   23.1250 C.3   117  CYS117      0.1712
    168  C         15.9330   29.2970   23.9060 C.2   117  CYS117      0.2296
    169  O         14.7390   29.4320   23.5540 O.2   117  CYS117     -0.2864
    170  CB        16.9850   27.1400   24.1100 C.3   117  CYS117      0.0983
    171  SG        18.3130   26.0070   23.7360 S.3   117  CYS117     -0.0798
    172  N         14.3580   32.2960   21.8230 N.3   120  CYS120     -0.1221
    173  CA        13.3440   31.8760   20.9270 C.3   120  CYS120      0.1808
    174  C         12.0720   31.6120   21.7340 C.2   120  CYS120      0.2598
    175  O         10.9620   32.0290   21.3190 O.2   120  CYS120     -0.2717
    176  CB        13.6630   30.7980   19.9920 C.3   120  CYS120      0.0970
    177  SG        12.2620   30.5560   18.8260 S.3   120  CYS120     -0.0800
    178  N         12.2620   30.9500   22.8380 N.am  121  HIS121     -0.2029
    179  CA        11.1790   30.6190   23.7390 C.3   121  HIS121      0.1342
    180  C         10.4440   31.8780   24.2760 C.3   121  HIS121      0.2040
    181  O          9.1490   31.9580   24.1290 O.3   121  HIS121     -0.2185
    182  CB        11.4060   29.5920   24.8120 C.3   121  HIS121      0.0718
    183  CG        11.7450   28.1930   24.3060 C.ar  121  HIS121      0.0817
    184  ND1       12.2380   27.2580   25.2140 N.ar  121  HIS121     -0.2268
    185  CD2       11.8380   27.6490   23.0920 C.ar  121  HIS121      0.1154
    186  CE1       12.5120   26.1510   24.5360 C.ar  121  HIS121      0.1986
    187  NE2       12.2970   26.3140   23.2750 N.ar  121  HIS121     -0.2212
    188  N          8.4280   33.4190   21.0310 N.3   124  PHE124     -0.1227
    189  CA         7.5480   32.6900   20.1490 C.3   124  PHE124      0.1736
    190  C          6.8260   31.5740   20.7810 C.2   124  PHE124      0.2595
    191  O          5.9830   31.0620   20.0640 O.2   124  PHE124     -0.2718
    192  CB         8.3230   32.3570   18.8690 C.3   124  PHE124      0.0547
    193  CG         8.8940   33.4730   18.0310 C.ar  124  PHE124     -0.0202
    194  CD1       10.2620   33.7150   17.9660 C.ar  124  PHE124     -0.0042
    195  CD2        8.0450   34.2550   17.2130 C.ar  124  PHE124     -0.0042
    196  CE1       10.8860   34.6930   17.2190 C.ar  124  PHE124     -0.0003
    197  CE2        8.6270   35.2590   16.4040 C.ar  124  PHE124     -0.0003
    198  CZ        10.0450   35.4500   16.3840 C.ar  124  PHE124     -0.0000
    199  N          7.1070   31.2110   21.9880 N.am  125  LYS125     -0.1980
    200  CA         6.4280   30.0600   22.6200 C.3   125  LYS125      0.1596
    201  C          5.3300   30.5120   23.5890 C.2   125  LYS125      0.2287
    202  O          5.3960   31.5220   24.3470 O.2   125  LYS125     -0.2864
    203  CB         7.5040   29.1510   23.2660 C.3   125  LYS125      0.0298
    204  CG         7.1990   27.7150   23.4970 C.3   125  LYS125      0.0038
    205  CD         7.9370   26.9810   24.5770 C.3   125  LYS125      0.0206
    206  CE         7.1610   25.7110   24.9680 C.3   125  LYS125      0.1093
    207  NZ         7.0010   25.6630   26.4440 N.3   125  LYS125     -0.1314
@<TRIPOS>BOND
     1    88    87    2
     2    87    86    1
     3    85    86    1
     4    86    89    1
     5    89    90    1
     6   117   118    1
     7   117   116    1
     8   134   135    1
     9   134   131    1
    10   132   133    2
    11   132   131    1
    12   122   124   ar
    13   122   120   ar
    14   115   116    1
    15   136   135   ar
    16   136   138   ar
    17    90    92   ar
    18    90    91   ar
    19   119   116    1
    20   119   120    1
    21    18    17    1
    22   135   137   ar
    23   124   125   ar
    24   131   130    1
    25    95    92   ar
    26    95    97   ar
    27   126   127    1
    28   130   128   am
    29   120   121   ar
    30    92    94   ar
    31   138   139   ar
    32    91    93   ar
    33     1     2    1
    34     9    10    1
    35    17    16    2
    36    17    19    1
    37   137   139   ar
    38   137   140   ar
    39    16    15    1
    40    97    98   ar
    41   128   127    1
    42   128   129    2
    43   139   141   ar
    44   125   123   ar
    45    10    13    1
    46    10    11    1
    47    13    14    1
    48   121   123   ar
    49    94    93   ar
    50    94    96   ar
    51   140   142   ar
    52     2     3    1
    53     2     5    1
    54   144   145    1
    55   146   147    2
    56   146   145    1
    57    80    79    1
    58   141   143   ar
    59    98    96   ar
    60    14    15    1
    61   198   197   ar
    62   198   196   ar
    63     3     4    2
    64   197   195   ar
    65    79    78    1
    66   142   143   ar
    67   114   112    1
    68     5     6    1
    69    11    12    2
    70    11    20   am
    71   145   148    1
    72   148   149    1
    73   195   193   ar
    74   196   194   ar
    75    36    35    1
    76    77    78    1
    77   112   113    1
    78   112   109    1
    79    20    21    1
    80    78    81    1
    81     7     6    1
    82   194   193   ar
    83   149   151    1
    84   149   150    1
    85   193   192    1
    86   111   110    2
    87     6     8    1
    88   110   109    1
    89    29    30    1
    90   177   176    1
    91    81    82    1
    92   192   189    1
    93   109   108    1
    94    35    34    1
    95    21    22    1
    96    21    24    1
    97    22    23    1
    98    52    51    1
    99    34    33    1
   100   164   163    1
   101   108   101   am
   102    53    51    1
   103    30    33    1
   104    30    31    1
   105   176   173    1
   106    25    24    1
   107    25    26    1
   108    50    51    1
   109    50    47    1
   110    46    47    1
   111   191   190    2
   112    82    83    1
   113   189   190    1
   114   189   188    1
   115   165   163    1
   116    99   100    1
   117    47    48    1
   118   163   160    1
   119   101   100    1
   120   101   102    2
   121   190   199   am
   122   173   174    1
   123   173   172    1
   124    31    37   am
   125    31    32    2
   126    26    27    2
   127    26    28   am
   128    37    38    1
   129   175   174    2
   130   100   103    1
   131    84    83    1
   132   162   161    2
   133    39    38    1
   134    39    40    1
   135   160   161    1
   136   160   159    1
   137   174   178   am
   138   199   200    1
   139    48    49    2
   140    48    54   am
   141   158   156    1
   142   161   166   am
   143    38    41    1
   144   157   156    1
   145    41    42    1
   146   103   104    1
   147   200   203    1
   148   200   201    1
   149   166   167    1
   150   156   153    1
   151   155   154    2
   152   178   179    1
   153    54    55    1
   154   153   154    1
   155   153   152    1
   156    42    43    1
   157   185   187   ar
   158   185   183   ar
   159   167   168    1
   160   167   170    1
   161   203   204    1
   162   187   186   ar
   163   104   105    1
   164   204   205    1
   165   169   168    2
   166   201   202    2
   167   171   170    1
   168   179   180    1
   169   179   182    1
   170   181   180    1
   171    63    64    1
   172   105   106   ar
   173   105   107   ar
   174   183   182    1
   175   183   184   ar
   176    55    56    1
   177    55    58    1
   178    43    45   am
   179    43    44    2
   180   186   184   ar
   181    67    64    1
   182    67    68    1
   183   205   206    1
   184    56    57    2
   185    73    75   ar
   186    73    70   ar
   187    64    65    1
   188   206   207    1
   189    58    59    1
   190    75    76   ar
   191    68    70   ar
   192    68    69   ar
   193    70    72   ar
   194    76    74   ar
   195    69    71   ar
   196    65    66    2
   197    72    74   ar
   198    72    71   ar
   199    59    60    1
   200    60    61    1
   201    61    62    1
