@<TRIPOS>MOLECULE
tmp/2cd8A01.pdb
 200 188 0 0 0
SMALL
GASTEIGER

@<TRIPOS>ATOM
      1  N         20.7840   -6.9320   13.8100 N.3    61  TRP61      -0.1241
      2  CA        20.6090   -8.3800   13.8440 C.3    61  TRP61       0.1605
      3  C         20.4450   -9.0250   12.4800 C.2    61  TRP61       0.2264
      4  O         20.6680  -10.2260   12.3280 O.2    61  TRP61      -0.2867
      5  CB        19.4300   -8.7630   14.7280 C.3    61  TRP61       0.0550
      6  CG        19.7300   -8.6440   16.1800 C.ar   61  TRP61       0.0003
      7  CD1       19.8540   -7.4940   16.9010 C.ar   61  TRP61       0.0946
      8  CD2       19.9350   -9.7210   17.1010 C.ar   61  TRP61       0.0152
      9  NE1       20.1200   -7.7870   18.2190 N.ar   61  TRP61      -0.2442
     10  CE2       20.1750   -9.1480   18.3690 C.ar   61  TRP61       0.0810
     11  CE3       19.9370  -11.1170   16.9770 C.ar   61  TRP61       0.0012
     12  CZ2       20.4180   -9.9240   19.5110 C.ar   61  TRP61       0.0191
     13  CZ3       20.1750  -11.8950   18.1180 C.ar   61  TRP61       0.0001
     14  CH2       20.4120  -11.2930   19.3660 C.ar   61  TRP61       0.0015
     15  N         17.1250  -13.5680   16.0290 N.3    68  LEU68      -0.1245
     16  CA        16.4270  -13.1100   17.2260 C.3    68  LEU68       0.1561
     17  C         15.3400  -14.1160   17.5640 C.2    68  LEU68       0.2260
     18  O         14.8350  -14.8090   16.6800 O.2    68  LEU68      -0.2867
     19  CB        15.7500  -11.7690   16.9660 C.3    68  LEU68       0.0270
     20  CG        16.6550  -10.5620   16.8230 C.3    68  LEU68       0.0019
     21  CD1       16.0900   -9.6160   15.7680 C.3    68  LEU68       0.0001
     22  CD2       16.7780   -9.8980   18.1730 C.3    68  LEU68       0.0001
     23  N         12.4710  -11.3390   21.6970 N.3    72  GLU72      -0.1245
     24  CA        13.4910  -10.3240   21.4240 C.3    72  GLU72       0.1567
     25  C         13.2110   -9.5040   20.1680 C.2    72  GLU72       0.2260
     26  O         13.6080   -8.3370   20.0940 O.2    72  GLU72      -0.2867
     27  CB        14.8750  -10.9750   21.2690 C.3    72  GLU72       0.0388
     28  CG        15.3240  -11.8660   22.4160 C.3    72  GLU72       0.1160
     29  CD        16.5590  -12.6950   22.0530 C.2    72  GLU72       0.3649
     30  OE1       16.8280  -12.8880   20.8490 O.co2  72  GLU72      -0.2457
     31  OE2       17.2580  -13.1710   22.9670 O.co2  72  GLU72      -0.2457
     32  N         11.5660   -6.1900   20.3440 N.3    75  LEU75      -0.1231
     33  CA        12.3500   -5.0880   20.9150 C.3    75  LEU75       0.1693
     34  C         13.6640   -4.6560   20.2400 C.2    75  LEU75       0.2592
     35  O         14.3370   -3.7680   20.7550 O.2    75  LEU75      -0.2718
     36  CB        12.6910   -5.4180   22.3670 C.3    75  LEU75       0.0284
     37  CG        11.7530   -6.2690   23.2240 C.3    75  LEU75       0.0019
     38  CD1       12.4170   -6.5310   24.5640 C.3    75  LEU75       0.0001
     39  CD2       10.4450   -5.5470   23.4420 C.3    75  LEU75       0.0001
     40  N         14.0410   -5.2480   19.1100 N.am   76  ASN76      -0.1974
     41  CA        15.3220   -4.8860   18.5030 C.3    76  ASN76       0.1688
     42  C         15.3440   -3.6770   17.5730 C.2    76  ASN76       0.2292
     43  O         16.3860   -3.3450   16.9980 O.2    76  ASN76      -0.2864
     44  CB        15.9040   -6.0820   17.7550 C.3    76  ASN76       0.1181
     45  CG        15.1900   -6.3440   16.4510 C.2    76  ASN76       0.2629
     46  OD1       14.0100   -6.6800   16.4390 O.2    76  ASN76      -0.2716
     47  ND2       15.9010   -6.1710   15.3400 N.am   76  ASN76      -0.0877
     48  N         20.3440    1.3000   19.5890 N.3    80  LEU80      -0.1231
     49  CA        21.4700    0.4750   19.9790 C.3    80  LEU80       0.1693
     50  C         21.6040   -0.7860   19.1280 C.2    80  LEU80       0.2591
     51  O         22.7010   -1.3320   18.9610 O.2    80  LEU80      -0.2718
     52  CB        21.3210    0.1240   21.4720 C.3    80  LEU80       0.0284
     53  CG        22.5410   -0.5150   22.1280 C.3    80  LEU80       0.0019
     54  CD1       23.8520    0.0320   21.5580 C.3    80  LEU80       0.0001
     55  CD2       22.4390   -0.2540   23.6330 C.3    80  LEU80       0.0001
     56  N         20.4860   -1.2550   18.5830 N.am   81  GLU81      -0.1979
     57  CA        20.5290   -2.4480   17.7470 C.3    81  GLU81       0.1602
     58  C         20.2300   -2.1080   16.3010 C.2    81  GLU81       0.2287
     59  O         19.3770   -2.7130   15.6660 O.2    81  GLU81      -0.2864
     60  CB        19.5440   -3.4990   18.2720 C.3    81  GLU81       0.0415
     61  CG        19.9690   -3.9940   19.6540 C.3    81  GLU81       0.1163
     62  CD        19.0160   -4.9910   20.2830 C.2    81  GLU81       0.3649
     63  OE1       17.8900   -4.5930   20.6750 O.co2  81  GLU81      -0.2457
     64  OE2       19.3990   -6.1630   20.3990 O.co2  81  GLU81      -0.2457
     65  N         14.3460   -6.6190   34.6690 N.3   162  THR162     -0.1218
     66  CA        15.7440   -6.2760   34.4960 C.3   162  THR162      0.1862
     67  C         16.6130   -7.3110   35.1960 C.2   162  THR162      0.2287
     68  O         17.6980   -7.6500   34.7240 O.2   162  THR162     -0.2866
     69  CB        16.0080   -4.8500   35.0400 C.3   162  THR162      0.1770
     70  OG1       15.1700   -3.9240   34.3370 O.3   162  THR162     -0.2211
     71  CG2       17.4450   -4.4500   34.8110 C.3   162  THR162      0.0375
     72  N         16.8680  -10.3750   32.8550 N.3   165  PHE165     -0.1227
     73  CA        17.6680  -10.2300   31.6450 C.3   165  PHE165      0.1736
     74  C         19.1500  -10.4930   31.9240 C.2   165  PHE165      0.2595
     75  O         19.8830  -10.9310   31.0470 O.2   165  PHE165     -0.2718
     76  CB        17.5020   -8.8260   31.0580 C.3   165  PHE165      0.0547
     77  CG        16.0990   -8.4910   30.6440 C.ar  165  PHE165     -0.0202
     78  CD1       15.6500   -7.1790   30.7060 C.ar  165  PHE165     -0.0042
     79  CD2       15.2200   -9.4790   30.2170 C.ar  165  PHE165     -0.0042
     80  CE1       14.3350   -6.8490   30.3510 C.ar  165  PHE165     -0.0003
     81  CE2       13.9020   -9.1580   29.8600 C.ar  165  PHE165     -0.0003
     82  CZ        13.4650   -7.8410   29.9310 C.ar  165  PHE165     -0.0000
     83  N         19.5650  -10.2260   33.1570 N.am  166  VAL166     -0.1980
     84  CA        20.9490  -10.4170   33.5860 C.3   166  VAL166      0.1595
     85  C         21.1730  -11.8220   34.1270 C.2   166  VAL166      0.2287
     86  O         22.1690  -12.4730   33.8110 O.2   166  VAL166     -0.2864
     87  CB        21.3270   -9.4050   34.7000 C.3   166  VAL166      0.0276
     88  CG1       22.6320   -9.8170   35.3710 C.3   166  VAL166      0.0022
     89  CG2       21.4500   -8.0210   34.1150 C.3   166  VAL166      0.0022
     90  N         10.8530  -10.6710   28.9550 N.3   178  MET178     -0.1245
     91  CA        10.8410   -9.7540   27.8180 C.3   178  MET178      0.1570
     92  C          9.3880   -9.6050   27.3640 C.2   178  MET178      0.2261
     93  O          8.8860   -8.4990   27.2320 O.2   178  MET178     -0.2867
     94  CB        11.6710  -10.2950   26.6520 C.3   178  MET178      0.0387
     95  CG        13.1810  -10.2670   26.8630 C.3   178  MET178      0.0595
     96  SD        14.0950  -10.6260   25.3230 S.3   178  MET178     -0.1393
     97  CE        15.6500  -11.1380   25.9980 C.3   178  MET178      0.0692
     98  N          7.3610   -7.5130   29.6130 N.3   181  MET181     -0.1245
     99  CA         7.7130   -6.1170   29.5260 C.3   181  MET181      0.1570
    100  C          7.2530   -5.5200   28.2110 C.2   181  MET181      0.2261
    101  O          6.7630   -4.4010   28.1770 O.2   181  MET181     -0.2867
    102  CB         9.2130   -5.9260   29.6880 C.3   181  MET181      0.0387
    103  CG         9.6770   -4.4950   29.4230 C.3   181  MET181      0.0595
    104  SD        11.4600   -4.4140   29.5780 S.3   181  MET181     -0.1393
    105  CE        11.9540   -5.2110   28.0430 C.3   181  MET181      0.0692
    106  N         11.5840    0.8410   25.3480 N.3   225  HIS225     -0.1226
    107  CA        12.3320   -0.2440   25.9770 C.3   225  HIS225      0.1752
    108  C         13.8100    0.1000   26.2100 C.2   225  HIS225      0.2595
    109  O         14.3460   -0.1370   27.2930 O.2   225  HIS225     -0.2718
    110  CB        12.2060   -1.5060   25.1110 C.3   225  HIS225      0.0759
    111  CG        13.4990   -2.2300   24.8780 C.ar  225  HIS225      0.0818
    112  ND1       14.0260   -2.4270   23.6160 N.ar  225  HIS225     -0.2268
    113  CD2       14.3490   -2.8390   25.7380 C.ar  225  HIS225      0.1154
    114  CE1       15.1410   -3.1280   23.7140 C.ar  225  HIS225      0.1986
    115  NE2       15.3580   -3.3940   24.9910 N.ar  225  HIS225     -0.2212
    116  N         14.4560    0.6710   25.1990 N.am  226  ILE226     -0.1980
    117  CA        15.8720    0.9780   25.3110 C.3   226  ILE226      0.1595
    118  C         16.2000    2.1030   26.2880 C.2   226  ILE226      0.2287
    119  O         17.2430    2.0870   26.9380 O.2   226  ILE226     -0.2864
    120  CB        16.4730    1.2790   23.9230 C.3   226  ILE226      0.0276
    121  CG1       17.9790    1.0140   23.9400 C.3   226  ILE226      0.0022
    122  CG2       16.1730    2.6940   23.5190 C.3   226  ILE226      0.0022
    123  CD1       18.3330   -0.4490   24.1010 C.3   226  ILE226      0.0001
    124  N         15.6420    0.3470   29.8170 N.3   229  VAL229     -0.1231
    125  CA        16.4450   -0.8330   30.1060 C.3   229  VAL229      0.1692
    126  C         17.9460   -0.5580   30.0920 C.2   229  VAL229      0.2591
    127  O         18.6740   -0.9150   31.0240 O.2   229  VAL229     -0.2718
    128  CB        16.1290   -1.9480   29.0810 C.3   229  VAL229      0.0266
    129  CG1       17.2350   -2.9870   29.0630 C.3   229  VAL229      0.0020
    130  CG2       14.7970   -2.5930   29.4290 C.3   229  VAL229      0.0020
    131  N         18.3960    0.0760   29.0200 N.am  230  ALA230     -0.1980
    132  CA        19.7970    0.3880   28.8330 C.3   230  ALA230      0.1597
    133  C         20.4360    1.1150   30.0000 C.2   230  ALA230      0.2287
    134  O         21.6260    0.9580   30.2390 O.2   230  ALA230     -0.2864
    135  CB        19.9680    1.1940   27.5690 C.3   230  ALA230      0.0319
    136  N         20.1090   -1.3440   35.2740 N.3   233  GLU233     -0.1231
    137  CA        21.1700   -1.9910   36.0510 C.3   233  GLU233      0.1699
    138  C         22.5110   -1.2830   35.8770 C.2   233  GLU233      0.2592
    139  O         23.3960   -1.3810   36.7320 O.2   233  GLU233     -0.2718
    140  CB        21.3410   -3.4670   35.6570 C.3   233  GLU233      0.0402
    141  CG        20.1870   -4.3820   36.0440 C.3   233  GLU233      0.1161
    142  CD        19.7790   -4.2580   37.5020 C.2   233  GLU233      0.3649
    143  OE1       19.4250   -3.1390   37.9360 O.co2 233  GLU233     -0.2457
    144  OE2       19.8030   -5.2870   38.2100 O.co2 233  GLU233     -0.2457
    145  N         22.6660   -0.5620   34.7720 N.am  234  THR234     -0.1953
    146  CA        23.9190    0.1250   34.5150 C.3   234  THR234      0.1897
    147  C         24.1620    1.2530   35.5180 C.2   234  THR234      0.2313
    148  O         25.2120    1.3080   36.1630 O.2   234  THR234     -0.2863
    149  CB        23.9300    0.6990   33.0880 C.3   234  THR234      0.1794
    150  OG1       22.8180    1.5700   32.9350 O.3   234  THR234     -0.2208
    151  CG2       23.8100   -0.4150   32.0500 C.3   234  THR234      0.0378
    152  N         29.3670   -1.9040   32.7800 N.3   277  VAL277     -0.1245
    153  CA        29.3880   -2.6530   31.5290 C.3   277  VAL277      0.1561
    154  C         30.7200   -3.3730   31.4120 C.2   277  VAL277      0.2260
    155  O         31.7420   -2.7660   31.1110 O.2   277  VAL277     -0.2867
    156  CB        29.1680   -1.7530   30.3000 C.3   277  VAL277      0.0252
    157  CG1       29.2550   -2.5840   29.0120 C.3   277  VAL277      0.0019
    158  CG2       27.8080   -1.0780   30.3980 C.3   277  VAL277      0.0019
    159  N         31.2110   -5.9860   29.3300 N.3   279  SER279     -0.1202
    160  CA        31.4100   -6.2110   27.9080 C.3   279  SER279      0.2020
    161  C         30.2990   -5.4930   27.1570 C.2   279  SER279      0.2619
    162  O         29.1460   -5.5490   27.5590 O.2   279  SER279     -0.2717
    163  CB        31.3720   -7.7060   27.5930 C.3   279  SER279      0.2103
    164  OG        32.4560   -8.3700   28.2120 O.3   279  SER279     -0.2182
    165  N         30.6520   -4.8130   26.0720 N.am  280  ALA280     -0.1965
    166  CA        29.6600   -4.0820   25.2810 C.3   280  ALA280      0.1728
    167  C         28.6230   -5.0200   24.6620 C.2   280  ALA280      0.2616
    168  O         28.8290   -6.2340   24.5940 O.2   280  ALA280     -0.2715
    169  CB        30.3540   -3.2830   24.1800 C.3   280  ALA280      0.0334
    170  N         27.5090   -4.4460   24.2090 N.am  281  THR281     -0.1951
    171  CA        26.4490   -5.2340   23.5860 C.3   281  THR281      0.1897
    172  C         26.8730   -5.8400   22.2420 C.2   281  THR281      0.2313
    173  O         27.8000   -5.3590   21.5930 O.2   281  THR281     -0.2863
    174  CB        25.1610   -4.3950   23.4000 C.3   281  THR281      0.1794
    175  OG1       25.4040   -3.3080   22.5020 O.3   281  THR281     -0.2208
    176  CG2       24.7080   -3.8410   24.7390 C.3   281  THR281      0.0378
    177  N         27.0650  -13.0520   34.6280 N.3   379  ASN379     -0.1240
    178  CA        26.9740  -12.4450   33.3000 C.3   379  ASN379      0.1653
    179  C         28.1980  -11.6130   32.9110 C.2   379  ASN379      0.2266
    180  O         28.5300  -10.6400   33.5910 O.2   379  ASN379     -0.2867
    181  CB        25.7260  -11.5780   33.2480 C.3   379  ASN379      0.1155
    182  CG        25.2500  -11.3460   31.8490 C.2   379  ASN379      0.2627
    183  OD1       25.9700  -10.7990   31.0190 O.2   379  ASN379     -0.2716
    184  ND2       24.0240  -11.7690   31.5690 N.am  379  ASN379     -0.0877
    185  N         28.5140   -9.4930   30.7090 N.3   381  MET381     -0.1230
    186  CA        28.1430   -8.1980   30.1810 C.3   381  MET381      0.1702
    187  C         27.9180   -7.1580   31.2580 C.2   381  MET381      0.2592
    188  O         28.1150   -5.9880   31.0180 O.2   381  MET381     -0.2718
    189  CB        26.8960   -8.3080   29.3100 C.3   381  MET381      0.0401
    190  CG        27.1380   -9.0320   28.0080 C.3   381  MET381      0.0596
    191  SD        25.6770   -9.0170   26.9540 S.3   381  MET381     -0.1393
    192  CE        25.5820   -7.2610   26.5270 C.3   381  MET381      0.0692
    193  N         27.5190   -7.5740   32.4510 N.am  382  ILE382     -0.1980
    194  CA        27.2970   -6.5860   33.4870 C.3   382  ILE382      0.1595
    195  C         27.9780   -6.9300   34.8150 C.2   382  ILE382      0.2287
    196  O         27.8660   -8.0410   35.3230 O.2   382  ILE382     -0.2864
    197  CB        25.7700   -6.3290   33.6710 C.3   382  ILE382      0.0276
    198  CG1       25.5250   -5.4240   34.8860 C.3   382  ILE382      0.0022
    199  CG2       25.0200   -7.6380   33.7740 C.3   382  ILE382      0.0022
    200  CD1       25.8480   -3.9650   34.6410 C.3   382  ILE382      0.0001
@<TRIPOS>BOND
     1     4     3    2
     2     3     2    1
     3     1     2    1
     4     2     5    1
     5     5     6    1
     6    47    45   am
     7    59    58    2
     8    21    20    1
     9    15    16    1
    10     6     7   ar
    11     6     8   ar
    12    58    57    1
    13    46    45    2
    14    45    44    1
    15    18    17    2
    16    20    19    1
    17    20    22    1
    18     7     9   ar
    19    19    16    1
    20    11     8   ar
    21    11    13   ar
    22    43    42    2
    23     8    10   ar
    24    16    17    1
    25    42    41    1
    26    57    60    1
    27    57    56    1
    28    44    41    1
    29    13    14   ar
    30     9    10   ar
    31    60    61    1
    32    10    12   ar
    33    41    40    1
    34    56    50   am
    35    51    50    2
    36    40    34   am
    37    50    49    1
    38    14    12   ar
    39    48    49    1
    40    61    62    1
    41    49    52    1
    42    26    25    2
    43    25    24    1
    44    34    35    2
    45    34    33    1
    46    62    64   ar
    47    62    63   ar
    48    32    33    1
    49    30    29   ar
    50    33    36    1
    51    27    24    1
    52    27    28    1
    53    24    23    1
    54    52    53    1
    55    54    53    1
    56   173   172    2
    57    29    28    1
    58    29    31   ar
    59    53    55    1
    60   172   171    1
    61    36    37    1
    62   175   174    1
    63    37    39    1
    64    37    38    1
    65   174   171    1
    66   174   176    1
    67   122   120    1
    68   171   170    1
    69   112   114   ar
    70   112   111   ar
    71   114   115   ar
    72   120   121    1
    73   120   117    1
    74   121   123    1
    75   169   166    1
    76   170   167   am
    77   168   167    2
    78   167   166    1
    79   111   110    1
    80   111   113   ar
    81   115   113   ar
    82   110   107    1
    83   116   117    1
    84   116   108   am
    85   166   165    1
    86   117   118    1
    87    96    97    1
    88    96    95    1
    89   106   107    1
    90   107   108    1
    91   165   161   am
    92   108   109    2
    93   118   119    2
    94   192   191    1
    95    94    95    1
    96    94    91    1
    97   191   190    1
    98   161   162    2
    99   161   160    1
   100    93    92    2
   101    92    91    1
   102   135   132    1
   103   163   160    1
   104   163   164    1
   105    91    90    1
   106   160   159    1
   107   190   189    1
   108   105   104    1
   109   101   100    2
   110   100    99    1
   111   132   131    1
   112   132   133    1
   113   157   156    1
   114   131   126   am
   115   129   128    1
   116   128   130    1
   117   128   125    1
   118   189   186    1
   119   103   104    1
   120   103   102    1
   121    99    98    1
   122    99   102    1
   123   124   125    1
   124    81    82   ar
   125    81    79   ar
   126    82    80   ar
   127   133   134    2
   128   126   125    1
   129   126   127    2
   130   186   185    1
   131   186   187    1
   132    79    77   ar
   133   156   158    1
   134   156   153    1
   135    80    78   ar
   136    77    78   ar
   137    77    76    1
   138   188   187    2
   139   183   182    2
   140    75    74    2
   141    76    73    1
   142   155   154    2
   143   187   193   am
   144   154   153    1
   145   153   152    1
   146   184   182   am
   147    73    74    1
   148    73    72    1
   149   182   181    1
   150    74    83   am
   151   151   149    1
   152   193   194    1
   153   179   178    1
   154   179   180    2
   155   150   149    1
   156   149   146    1
   157    83    84    1
   158   181   178    1
   159   178   177    1
   160   194   197    1
   161   194   195    1
   162    84    85    1
   163    84    87    1
   164   197   199    1
   165   197   198    1
   166    86    85    2
   167    89    87    1
   168    70    69    1
   169    66    65    1
   170    66    69    1
   171    66    67    1
   172   146   145    1
   173   146   147    1
   174   200   198    1
   175    87    88    1
   176    68    67    2
   177   145   138   am
   178    71    69    1
   179   195   196    2
   180   136   137    1
   181   147   148    2
   182   140   141    1
   183   140   137    1
   184   138   137    1
   185   138   139    2
   186   141   142    1
   187   142   143   ar
   188   142   144   ar
