@<TRIPOS>MOLECULE
tmp/2cdbC00.pdb
 107 100 0 0 0
SMALL
GASTEIGER

@<TRIPOS>ATOM
      1  N         66.5830   46.1780  -13.4470 N.3    39  CYS39      -0.1235
      2  CA        65.4060   45.4340  -12.9700 C.3    39  CYS39       0.1677
      3  C         65.6660   44.7010  -11.6490 C.2    39  CYS39       0.2270
      4  O         66.7530   44.7920  -11.0710 O.2    39  CYS39      -0.2867
      5  CB        64.8940   44.4690  -14.0320 C.3    39  CYS39       0.0956
      6  SG        65.8690   42.9680  -14.0970 S.3    39  CYS39      -0.0801
      7  N         66.3380   41.6940  -10.9150 N.3    41  ALA41      -0.1245
      8  CA        67.4910   40.7900  -10.9100 C.3    41  ALA41       0.1562
      9  C         68.7800   41.5620  -10.5950 C.2    41  ALA41       0.2260
     10  O         69.6680   41.0490   -9.8950 O.2    41  ALA41      -0.2867
     11  CB        67.6030   40.0600  -12.2240 C.3    41  ALA41       0.0290
     12  N         71.9910   43.5930  -17.9540 N.3    58  HIS58      -0.1241
     13  CA        71.6740   42.7330  -19.0970 C.3    58  HIS58       0.1621
     14  C         70.6510   43.3820  -20.0130 C.2    58  HIS58       0.2264
     15  O         70.1790   42.7310  -20.9540 O.2    58  HIS58      -0.2867
     16  CB        71.0900   41.4220  -18.5930 C.3    58  HIS58       0.0745
     17  CG        69.9520   41.6390  -17.6550 C.ar   58  HIS58       0.0817
     18  ND1       70.1320   41.7580  -16.2910 N.ar   58  HIS58      -0.2268
     19  CD2       68.6420   41.8680  -17.8880 C.ar   58  HIS58       0.1154
     20  CE1       68.9680   42.0230  -15.7230 C.ar   58  HIS58       0.1986
     21  NE2       68.0470   42.0920  -16.6710 N.ar   58  HIS58      -0.2212
     22  N         70.6000   38.8100  -23.9930 N.3    81  ASN81      -0.1225
     23  CA        71.3490   38.5630  -22.7470 C.3    81  ASN81       0.1785
     24  C         71.7200   37.1110  -22.4040 C.2    81  ASN81       0.2597
     25  O         72.7980   36.8890  -21.8310 O.2    81  ASN81      -0.2718
     26  CB        70.6490   39.2220  -21.5450 C.3    81  ASN81       0.1169
     27  CG        69.2190   38.7520  -21.3680 C.2    81  ASN81       0.2627
     28  OD1       68.3900   38.8750  -22.2750 O.2    81  ASN81      -0.2716
     29  ND2       68.9210   38.1910  -20.2090 N.am   81  ASN81      -0.0877
     30  N         70.8530   36.1350  -22.7330 N.am   82  ARG82      -0.1979
     31  CA        71.1760   34.7220  -22.4720 C.3    82  ARG82       0.1597
     32  C         71.7500   34.1080  -23.7270 C.2    82  ARG82       0.2287
     33  O         71.1440   34.2030  -24.7910 O.2    82  ARG82      -0.2864
     34  CB        69.9400   33.9170  -22.0630 C.3    82  ARG82       0.0334
     35  CG        70.2960   32.4430  -21.8550 C.3    82  ARG82       0.0492
     36  CD        69.1080   31.5270  -21.6350 C.3    82  ARG82       0.2205
     37  NE        68.5300   31.7520  -20.3160 N.pl3  82  ARG82      -0.0865
     38  CZ        67.8310   30.8500  -19.6390 C.cat  82  ARG82       0.5346
     39  NH1       67.6210   29.6350  -20.1510 N.pl3  82  ARG82       0.1354
     40  NH2       67.3750   31.1590  -18.4330 N.pl3  82  ARG82       0.1354
     41  N         74.3880   34.0470  -18.8330 N.3   106  GLU106     -0.1245
     42  CA        73.4840   35.1950  -18.7910 C.3   106  GLU106      0.1567
     43  C         74.2490   36.4750  -18.4650 C.2   106  GLU106      0.2260
     44  O         74.7780   36.6190  -17.3700 O.2   106  GLU106     -0.2867
     45  CB        72.3290   34.9720  -17.8080 C.3   106  GLU106      0.0388
     46  CG        71.3240   33.9460  -18.3280 C.3   106  GLU106      0.1160
     47  CD        69.9680   34.0200  -17.6590 C.2   106  GLU106      0.3649
     48  OE1       69.9270   34.3310  -16.4420 O.co2 106  GLU106     -0.2457
     49  OE2       68.9530   33.7410  -18.3430 O.co2 106  GLU106     -0.2457
     50  N         74.8380   38.4210  -14.9750 N.3   109  ILE109     -0.1245
     51  CA        74.2630   37.5390  -13.9490 C.3   109  ILE109      0.1561
     52  C         75.1840   36.3510  -13.6630 C.2   109  ILE109      0.2260
     53  O         75.6080   36.1530  -12.5190 O.2   109  ILE109     -0.2867
     54  CB        72.8540   37.0180  -14.3420 C.3   109  ILE109      0.0252
     55  CG1       71.9290   38.1680  -14.7590 C.3   109  ILE109      0.0019
     56  CG2       72.2380   36.1580  -13.2050 C.3   109  ILE109      0.0019
     57  CD1       71.5590   39.1570  -13.6780 C.3   109  ILE109      0.0001
     58  N         63.9700   44.3240  -23.9730 N.3   142  GLN142     -0.1231
     59  CA        64.5670   43.1800  -23.2680 C.3   142  GLN142      0.1683
     60  C         63.5510   42.5450  -22.2940 C.2   142  GLN142      0.2434
     61  O         63.2670   41.3620  -22.4290 O.2   142  GLN142     -0.2733
     62  CB        65.9160   43.5430  -22.6170 C.3   142  GLN142      0.0380
     63  CG        66.7310   42.3370  -22.1350 C.3   142  GLN142      0.0905
     64  CD        66.1390   41.7130  -20.8810 C.2   142  GLN142      0.2608
     65  OE1       65.5450   42.4040  -20.0540 O.2   142  GLN142     -0.2717
     66  NE2       66.2590   40.4070  -20.7560 N.am  142  GLN142     -0.0878
     67  N         62.9930   43.3110  -21.3350 N.am  143  PRO143     -0.2729
     68  CA        62.0030   42.6620  -20.4680 C.3   143  PRO143      0.1401
     69  C         60.7770   42.1800  -21.2330 C.2   143  PRO143      0.2269
     70  O         60.2350   41.1250  -20.9290 O.2   143  PRO143     -0.2865
     71  CB        61.6160   43.7630  -19.4610 C.3   143  PRO143      0.0296
     72  CG        62.0770   45.0200  -20.0580 C.3   143  PRO143      0.0237
     73  CD        63.2730   44.6970  -20.9090 C.3   143  PRO143      0.0939
     74  N         60.8920   38.5170  -22.7170 N.3   146  ASP146     -0.1239
     75  CA        60.5610   37.3680  -21.8490 C.3   146  ASP146      0.1674
     76  C         59.0680   37.1010  -21.9190 C.2   146  ASP146      0.2266
     77  O         58.6300   35.9420  -21.9270 O.2   146  ASP146     -0.2867
     78  CB        60.9330   37.6420  -20.3970 C.3   146  ASP146      0.1410
     79  CG        62.4360   37.8110  -20.1870 C.2   146  ASP146      0.3668
     80  OD1       63.2660   37.1660  -20.8900 O.co2 146  ASP146     -0.2456
     81  OD2       62.8020   38.6040  -19.2910 O.co2 146  ASP146     -0.2456
     82  N         59.3800   34.6160   -9.8630 N.3   271  PHE271     -0.1241
     83  CA        60.2280   33.7410   -9.0750 C.3   271  PHE271      0.1605
     84  C         59.8600   33.9190   -7.6190 C.2   271  PHE271      0.2264
     85  O         60.2770   34.8850   -6.9780 O.2   271  PHE271     -0.2867
     86  CB        61.7090   34.0300   -9.2980 C.3   271  PHE271      0.0534
     87  CG        62.1770   33.7120  -10.6760 C.ar  271  PHE271     -0.0203
     88  CD1       62.5840   34.7280  -11.5300 C.ar  271  PHE271     -0.0042
     89  CD2       62.1840   32.3940  -11.1360 C.ar  271  PHE271     -0.0042
     90  CE1       63.0190   34.4520  -12.8390 C.ar  271  PHE271     -0.0003
     91  CE2       62.6160   32.1100  -12.4460 C.ar  271  PHE271     -0.0003
     92  CZ        63.0270   33.1480  -13.2890 C.ar  271  PHE271     -0.0000
     93  N         59.9990   31.0580  -18.8640 N.3   298  VAL298     -0.1231
     94  CA        61.2780   31.7550  -18.6530 C.3   298  VAL298      0.1692
     95  C         62.0090   32.1050  -19.9570 C.2   298  VAL298      0.2592
     96  O         62.0490   31.2970  -20.9020 O.2   298  VAL298     -0.2718
     97  CB        62.2260   30.9460  -17.7210 C.3   298  VAL298      0.0266
     98  CG1       62.7780   29.6960  -18.4460 C.3   298  VAL298      0.0020
     99  CG2       63.3580   31.8010  -17.1930 C.3   298  VAL298      0.0020
    100  N         62.5460   33.3220  -19.9780 N.am  299  ASN299     -0.1974
    101  CA        63.5500   33.7930  -20.9540 C.3   299  ASN299      0.1688
    102  C         63.1060   33.9730  -22.4030 C.2   299  ASN299      0.2292
    103  O         62.7270   33.0050  -23.0620 O.2   299  ASN299     -0.2864
    104  CB        64.8230   32.9250  -20.9260 C.3   299  ASN299      0.1181
    105  CG        65.9410   33.5140  -21.7820 C.2   299  ASN299      0.2629
    106  OD1       66.2750   32.9790  -22.8360 O.2   299  ASN299     -0.2716
    107  ND2       66.5200   34.6320  -21.3240 N.am  299  ASN299     -0.0877
@<TRIPOS>BOND
     1    33    32    2
     2    22    23    1
     3    58    59    1
     4    32    31    1
     5    59    62    1
     6    59    60    1
     7   103   102    2
     8   106   105    2
     9    23    24    1
    10    23    26    1
    11    30    31    1
    12    30    24   am
    13    74    75    1
    14    62    63    1
    15    31    34    1
    16    61    60    2
    17    24    25    2
    18   102   101    1
    19    60    67   am
    20    28    27    2
    21    63    64    1
    22    34    35    1
    23    77    76    2
    24    76    75    1
    25    35    36    1
    26    75    78    1
    27   105   107   am
    28   105   104    1
    29    36    37    1
    30    26    27    1
    31    27    29   am
    32    67    73    1
    33    67    68    1
    34    69    70    2
    35    69    68    1
    36    15    14    2
    37   101   104    1
    38   101   100    1
    39    73    72    1
    40    96    95    2
    41    80    79   ar
    42    64    66   am
    43    64    65    2
    44    68    71    1
    45    78    79    1
    46    37    38    2
    47    79    81   ar
    48    39    38    1
    49    72    71    1
    50    14    13    1
    51   100    95   am
    52    95    94    1
    53    38    40    1
    54    13    16    1
    55    13    12    1
    56    93    94    1
    57    41    42    1
    58    42    43    1
    59    42    45    1
    60    94    97    1
    61    16    17    1
    62    43    44    2
    63    98    97    1
    64    49    47   ar
    65    46    45    1
    66    46    47    1
    67    19    17   ar
    68    19    21   ar
    69    97    99    1
    70    47    48   ar
    71    17    18   ar
    72    21    20   ar
    73    18    20   ar
    74    50    51    1
    75    55    54    1
    76    55    57    1
    77    54    51    1
    78    54    56    1
    79     6     5    1
    80     5     2    1
    81    51    52    1
    82    52    53    2
    83     1     2    1
    84    92    90   ar
    85    92    91   ar
    86     2     3    1
    87    90    88   ar
    88    91    89   ar
    89    11     8    1
    90     3     4    2
    91    88    87   ar
    92    89    87   ar
    93     7     8    1
    94     8     9    1
    95    87    86    1
    96     9    10    2
    97    82    83    1
    98    86    83    1
    99    83    84    1
   100    84    85    2
