@<TRIPOS>MOLECULE
tmp/2cdcC01.pdb
 116 109 0 0 0
SMALL
GASTEIGER

@<TRIPOS>ATOM
      1  N         32.3910  -42.8900   14.6850 N.3    39  CYS39      -0.1235
      2  CA        31.2320  -42.1640   14.1550 C.3    39  CYS39       0.1677
      3  C         31.5010  -41.5020   12.8190 C.2    39  CYS39       0.2270
      4  O         32.5930  -41.6360   12.2620 O.2    39  CYS39      -0.2867
      5  CB        30.7080  -41.1470   15.1570 C.3    39  CYS39       0.0956
      6  SG        31.7260  -39.6410   15.2740 S.3    39  CYS39      -0.0801
      7  N         32.1220  -38.4710   11.9080 N.3    41  ALA41      -0.1245
      8  CA        33.2930  -37.5900   11.8770 C.3    41  ALA41       0.1562
      9  C         34.5710  -38.3760   11.5640 C.2    41  ALA41       0.2260
     10  O         35.4210  -37.9070   10.7950 O.2    41  ALA41      -0.2867
     11  CB        33.4410  -36.8520   13.2120 C.3    41  ALA41       0.0290
     12  N         37.7760  -40.0530   19.0260 N.3    59  HIS59      -0.1226
     13  CA        37.4600  -39.1730   20.1430 C.3    59  HIS59       0.1752
     14  C         36.4520  -39.8010   21.1080 C.2    59  HIS59       0.2595
     15  O         35.9990  -39.1150   22.0420 O.2    59  HIS59      -0.2718
     16  CB        36.8700  -37.8890   19.6000 C.3    59  HIS59       0.0759
     17  CG        35.7280  -38.1290   18.6760 C.ar   59  HIS59       0.0818
     18  ND1       35.8990  -38.3190   17.3230 N.ar   59  HIS59      -0.2268
     19  CD2       34.4050  -38.2760   18.9210 C.ar   59  HIS59       0.1154
     20  CE1       34.7230  -38.5460   16.7660 C.ar   59  HIS59       0.1986
     21  NE2       33.8000  -38.5250   17.7140 N.ar   59  HIS59      -0.2212
     22  N         36.0960  -41.0680   20.8640 N.am   60  GLU60      -0.1979
     23  CA        35.1620  -41.8280   21.6850 C.3    60  GLU60       0.1602
     24  C         35.9660  -42.9480   22.3460 C.2    60  GLU60       0.2287
     25  O         36.4710  -43.8450   21.6410 O.2    60  GLU60      -0.2864
     26  CB        34.0530  -42.4280   20.8090 C.3    60  GLU60       0.0415
     27  CG        33.2790  -41.3830   19.9850 C.3    60  GLU60       0.1163
     28  CD        32.1250  -41.9790   19.1970 C.2    60  GLU60       0.3649
     29  OE1       31.7590  -43.1480   19.4330 O.co2  60  GLU60      -0.2457
     30  OE2       31.5780  -41.2740   18.3280 O.co2  60  GLU60      -0.2457
     31  N         36.4070  -34.8650   24.8900 N.3    82  ASN82      -0.1225
     32  CA        37.1650  -34.7690   23.6300 C.3    82  ASN82       0.1785
     33  C         37.5270  -33.3520   23.1940 C.2    82  ASN82       0.2597
     34  O         38.6080  -33.1440   22.6170 O.2    82  ASN82      -0.2718
     35  CB        36.4570  -35.5180   22.4850 C.3    82  ASN82       0.1169
     36  CG        35.0170  -35.0930   22.3160 C.2    82  ASN82       0.2627
     37  OD1       34.2080  -35.2170   23.2410 O.2    82  ASN82      -0.2716
     38  ND2       34.6830  -34.5740   21.1420 N.am   82  ASN82      -0.0877
     39  N         36.6380  -32.3850   23.4350 N.am   83  ARG83      -0.1979
     40  CA        36.9610  -30.9910   23.1270 C.3    83  ARG83       0.1597
     41  C         37.5680  -30.3420   24.3580 C.2    83  ARG83       0.2287
     42  O         36.9860  -30.3860   25.4500 O.2    83  ARG83      -0.2864
     43  CB        35.7690  -30.1650   22.6420 C.3    83  ARG83       0.0334
     44  CG        36.1490  -28.7020   22.3880 C.3    83  ARG83       0.0492
     45  CD        34.9750  -27.7900   22.0820 C.3    83  ARG83       0.2205
     46  NE        34.4080  -28.0980   20.7680 N.pl3  83  ARG83      -0.0865
     47  CZ        33.6150  -27.2750   20.1010 C.cat  83  ARG83       0.5346
     48  NH1       33.3080  -26.0770   20.6090 N.pl3  83  ARG83       0.1354
     49  NH2       33.1490  -27.6530   18.9050 N.pl3  83  ARG83       0.1354
     50  N         40.1490  -30.4620   19.3540 N.3   107  GLU107     -0.1245
     51  CA        39.2380  -31.5950   19.3140 C.3   107  GLU107      0.1567
     52  C         40.0060  -32.8980   19.1220 C.2   107  GLU107      0.2260
     53  O         40.5600  -33.1640   18.0490 O.2   107  GLU107     -0.2867
     54  CB        38.1670  -31.4030   18.2340 C.3   107  GLU107      0.0388
     55  CG        37.1870  -30.2600   18.5510 C.3   107  GLU107      0.1160
     56  CD        35.7430  -30.5960   18.2240 C.2   107  GLU107      0.3649
     57  OE1       35.5220  -31.2330   17.1760 O.co2 107  GLU107     -0.2457
     58  OE2       34.8170  -30.2100   18.9830 O.co2 107  GLU107     -0.2457
     59  N         40.6900  -35.0410   15.8140 N.3   110  ILE110     -0.1245
     60  CA        40.1080  -34.2640   14.7290 C.3   110  ILE110      0.1561
     61  C         40.9390  -33.0280   14.4400 C.2   110  ILE110      0.2260
     62  O         41.3010  -32.7740   13.2940 O.2   110  ILE110     -0.2867
     63  CB        38.6590  -33.8150   15.0290 C.3   110  ILE110      0.0252
     64  CG1       37.7890  -35.0100   15.4280 C.3   110  ILE110      0.0019
     65  CG2       38.0710  -33.0700   13.8090 C.3   110  ILE110      0.0019
     66  CD1       36.2950  -34.7470   15.4210 C.3   110  ILE110      0.0001
     67  N         29.7740  -40.4690   25.0690 N.3   143  GLN143     -0.1231
     68  CA        30.3870  -39.3460   24.3700 C.3   143  GLN143      0.1683
     69  C         29.3880  -38.7710   23.3440 C.2   143  GLN143      0.2438
     70  O         29.0930  -37.5730   23.3760 O.2   143  GLN143     -0.2733
     71  CB        31.7190  -39.7420   23.7130 C.3   143  GLN143      0.0380
     72  CG        32.5080  -38.5520   23.1920 C.3   143  GLN143      0.0905
     73  CD        31.9460  -38.0130   21.8970 C.2   143  GLN143      0.2608
     74  OE1       31.4270  -38.7750   21.0870 O.2   143  GLN143     -0.2717
     75  NE2       32.0510  -36.7100   21.6830 N.am  143  GLN143     -0.0878
     76  N         28.8640  -39.6100   22.4140 N.am  144  PRO144     -0.2653
     77  CA        27.8310  -39.0110   21.5560 C.3   144  PRO144      0.1628
     78  C         26.5890  -38.4970   22.2920 C.2   144  PRO144      0.2315
     79  O         26.0030  -37.5080   21.8840 O.2   144  PRO144     -0.2861
     80  CB        27.4020  -40.1610   20.6170 C.2   144  PRO144     -0.0016
     81  CG        28.1930  -41.3090   20.9730 C.2   144  PRO144     -0.0072
     82  CD        29.2120  -40.9810   22.0210 C.3   144  PRO144      0.1203
     83  N         26.7380  -34.7960   23.6160 N.3   147  ASP147     -0.1239
     84  CA        26.4190  -33.6960   22.7090 C.3   147  ASP147      0.1674
     85  C         24.9100  -33.4270   22.7440 C.2   147  ASP147      0.2266
     86  O         24.4570  -32.2840   22.6790 O.2   147  ASP147     -0.2867
     87  CB        26.8010  -34.0570   21.2730 C.3   147  ASP147      0.1410
     88  CG        28.3210  -34.2010   21.0490 C.2   147  ASP147      0.3668
     89  OD1       29.1610  -33.5410   21.7350 O.co2 147  ASP147     -0.2456
     90  OD2       28.6720  -34.9840   20.1380 O.co2 147  ASP147     -0.2456
     91  N         25.2060  -31.6110   10.5950 N.3   272  PHE272     -0.1241
     92  CA        26.0250  -30.7940    9.6940 C.3   272  PHE272      0.1605
     93  C         25.6340  -31.0170    8.2360 C.2   272  PHE272      0.2264
     94  O         26.0850  -31.9660    7.5780 O.2   272  PHE272     -0.2867
     95  CB        27.5170  -31.0450    9.9150 C.3   272  PHE272      0.0534
     96  CG        27.9920  -30.5760   11.2420 C.ar  272  PHE272     -0.0203
     97  CD1       28.4230  -31.4820   12.1960 C.ar  272  PHE272     -0.0042
     98  CD2       27.9840  -29.2150   11.5580 C.ar  272  PHE272     -0.0042
     99  CE1       28.8420  -31.0490   13.4670 C.ar  272  PHE272     -0.0003
    100  CE2       28.3960  -28.7790   12.8250 C.ar  272  PHE272     -0.0003
    101  CZ        28.8250  -29.6990   13.7700 C.ar  272  PHE272     -0.0000
    102  N         25.8790  -27.5420   19.3120 N.3   299  VAL299     -0.1231
    103  CA        27.1540  -28.2390   19.1380 C.3   299  VAL299      0.1692
    104  C         27.8440  -28.5320   20.4730 C.2   299  VAL299      0.2592
    105  O         27.8550  -27.6890   21.3850 O.2   299  VAL299     -0.2718
    106  CB        28.1020  -27.4400   18.2070 C.3   299  VAL299      0.0266
    107  CG1       28.6680  -26.2000   18.9120 C.3   299  VAL299      0.0020
    108  CG2       29.2070  -28.3240   17.6470 C.3   299  VAL299      0.0020
    109  N         28.3770  -29.7450   20.5690 N.am  300  ASN300     -0.1974
    110  CA        29.3460  -30.1420   21.5960 C.3   300  ASN300      0.1688
    111  C         28.8690  -30.2350   23.0480 C.2   300  ASN300      0.2292
    112  O         28.4320  -29.2450   23.6500 O.2   300  ASN300     -0.2864
    113  CB        30.6380  -29.2930   21.5000 C.3   300  ASN300      0.1181
    114  CG        31.7350  -29.8320   22.3810 C.2   300  ASN300      0.2629
    115  OD1       32.0370  -29.2500   23.4240 O.2   300  ASN300     -0.2716
    116  ND2       32.2940  -30.9790   22.0100 N.am  300  ASN300     -0.0877
@<TRIPOS>BOND
     1    94    93    2
     2    93    92    1
     3    92    95    1
     4    92    91    1
     5    95    96    1
     6    10     9    2
     7    96    98   ar
     8    96    97   ar
     9    98   100   ar
    10     9     8    1
    11     8     7    1
    12     8    11    1
    13    97    99   ar
    14     4     3    2
    15     3     2    1
    16   100   101   ar
    17    62    61    2
    18    99   101   ar
    19    65    63    1
    20     2     1    1
    21     2     5    1
    22    61    60    1
    23    60    63    1
    24    60    59    1
    25    63    64    1
    26     5     6    1
    27    66    64    1
    28    20    18   ar
    29    20    21   ar
    30    57    56   ar
    31    18    17   ar
    32   108   106    1
    33    21    19   ar
    34    53    52    2
    35   106   107    1
    36   106   103    1
    37    56    55    1
    38    56    58   ar
    39    54    55    1
    40    54    51    1
    41    30    28   ar
    42    17    19   ar
    43    17    16    1
    44    49    47    1
    45    12    13    1
    46    52    51    1
    47   103   102    1
    48   103   104    1
    49    28    29   ar
    50    28    27    1
    51    51    50    1
    52    16    13    1
    53    27    26    1
    54    47    48    1
    55    47    46    2
    56    90    88   ar
    57    13    14    1
    58   104   109   am
    59   104   105    2
    60   109   110    1
    61    80    81    2
    62    80    77    1
    63    46    45    1
    64    26    23    1
    65    22    14   am
    66    22    23    1
    67    81    82    1
    68    88    87    1
    69    88    89   ar
    70    74    73    2
    71    14    15    2
    72    38    36   am
    73    87    84    1
    74   113   110    1
    75   113   114    1
    76    77    78    1
    77    77    76    1
    78   110   111    1
    79    25    24    2
    80    75    73   am
    81    23    24    1
    82    79    78    2
    83    73    72    1
    84   116   114   am
    85    82    76    1
    86    45    44    1
    87    36    35    1
    88    36    37    2
    89   114   115    2
    90    44    43    1
    91    76    69   am
    92    35    32    1
    93    34    33    2
    94    43    40    1
    95    86    85    2
    96    84    85    1
    97    84    83    1
    98   111   112    2
    99    40    39    1
   100    40    41    1
   101    72    71    1
   102    33    39   am
   103    33    32    1
   104    69    70    2
   105    69    68    1
   106    32    31    1
   107    71    68    1
   108    41    42    2
   109    68    67    1
