@<TRIPOS>MOLECULE
tmp/2cdnA00.pdb
 186 175 0 0 0
SMALL
GASTEIGER

@<TRIPOS>ATOM
      1  N         -2.0310    0.7400   21.8360 N.3    14  PRO14      -0.2102
      2  CA        -0.5620    0.8230   21.9170 C.3    14  PRO14       0.1504
      3  C          0.0100   -0.3690   22.6740 C.2    14  PRO14       0.2576
      4  O         -0.4720   -0.7320   23.7500 O.2    14  PRO14      -0.2718
      5  CB        -0.3160    2.1430   22.6640 C.3    14  PRO14       0.0282
      6  CG        -1.6740    2.5350   23.2610 C.3    14  PRO14       0.0208
      7  CD        -2.6580    2.0090   22.2750 C.3    14  PRO14       0.0893
      8  N          0.9970   -1.0060   22.0830 N.am   15  GLY15      -0.1957
      9  CA         1.5770   -2.1960   22.6660 C.3    15  GLY15       0.1869
     10  C          0.9780   -3.5090   22.2230 C.2    15  GLY15       0.2309
     11  O          1.4420   -4.5570   22.6570 O.2    15  GLY15      -0.2863
     12  N          1.2510   -4.5690   16.9280 N.3    18  LYS18      -0.1245
     13  CA         0.9080   -4.1950   15.5280 C.3    18  LYS18       0.1561
     14  C          2.1590   -4.0110   14.6450 C.2    18  LYS18       0.2260
     15  O          2.2440   -4.5650   13.5520 O.2    18  LYS18      -0.2867
     16  CB         0.0540   -2.9250   15.5170 C.3    18  LYS18       0.0271
     17  CG        -1.3190   -3.0810   16.1620 C.3    18  LYS18       0.0035
     18  CD        -2.1580   -1.8010   16.1290 C.3    18  LYS18       0.0206
     19  CE        -1.4270   -0.5380   16.6530 C.3    18  LYS18       0.1093
     20  NZ        -1.0630   -0.5990   18.0780 N.3    18  LYS18      -0.1314
     21  N          3.6420    2.4020    8.5650 N.3    35  SER35      -0.1202
     22  CA         3.3290    2.8600    9.9280 C.3    35  SER35       0.2020
     23  C          3.3370    4.3740    9.9560 C.2    35  SER35       0.2619
     24  O          4.3750    5.0110    9.6310 O.2    35  SER35      -0.2717
     25  CB         4.3460    2.3200   10.9140 C.3    35  SER35       0.2103
     26  OG         4.2890    3.0260   12.1560 O.3    35  SER35      -0.2182
     27  N          2.1920    4.9630   10.3050 N.am   36  THR36      -0.1938
     28  CA         2.1010    6.4100   10.4710 C.3    36  THR36       0.2028
     29  C          3.0120    6.9390   11.6050 C.2    36  THR36       0.2642
     30  O          3.6290    8.0000   11.4440 O.2    36  THR36      -0.2714
     31  CB         0.6520    6.8920   10.6820 C.3    36  THR36       0.1808
     32  OG1       -0.0880    5.8730   11.3640 O.3    36  THR36      -0.2208
     33  CG2       -0.0050    7.1480    9.3500 C.3    36  THR36       0.0379
     34  N          3.0750    6.2260   12.7340 N.am   37  GLY37      -0.1954
     35  CA         4.0820    6.5320   13.8090 C.3    37  GLY37       0.1869
     36  C          5.5190    6.5930   13.2550 C.2    37  GLY37       0.2309
     37  O          6.2520    7.5660   13.4880 O.2    37  GLY37      -0.2863
     38  N          5.9040    9.7910   10.9840 N.3    40  PHE40      -0.1227
     39  CA         6.0300   11.0070   11.7760 C.3    40  PHE40       0.1736
     40  C          7.4090   11.0590   12.4120 C.2    40  PHE40       0.2595
     41  O          8.0470   12.1130   12.4240 O.2    40  PHE40      -0.2718
     42  CB         4.9620   11.0830   12.8500 C.3    40  PHE40       0.0547
     43  CG         3.6070   11.5020   12.3440 C.ar   40  PHE40      -0.0202
     44  CD1        3.4270   12.6990   11.6410 C.ar   40  PHE40      -0.0042
     45  CD2        2.5010   10.7120   12.6120 C.ar   40  PHE40      -0.0042
     46  CE1        2.1600   13.0880   11.1890 C.ar   40  PHE40      -0.0003
     47  CE2        1.2160   11.0990   12.1730 C.ar   40  PHE40      -0.0003
     48  CZ         1.0470   12.2800   11.4740 C.ar   40  PHE40      -0.0000
     49  N          7.8630    9.9290   12.9460 N.am   41  ARG41      -0.1980
     50  CA         9.1930    9.9010   13.5870 C.3    41  ARG41       0.1597
     51  C         10.3390   10.2320   12.6130 C.2    41  ARG41       0.2287
     52  O         11.3110   10.8930   12.9940 O.2    41  ARG41      -0.2864
     53  CB         9.4070    8.5890   14.3500 C.3    41  ARG41       0.0334
     54  CG         8.5610    8.5470   15.6840 C.3    41  ARG41       0.0492
     55  CD         8.9200    7.3650   16.6290 C.3    41  ARG41       0.2205
     56  NE         8.7400    6.0730   15.9880 N.pl3  41  ARG41      -0.0865
     57  CZ         7.6120    5.3410   16.0350 C.cat  41  ARG41       0.5346
     58  NH1        6.5500    5.7490   16.7430 N.pl3  41  ARG41       0.1354
     59  NH2        7.5550    4.1820   15.3840 N.pl3  41  ARG41       0.1354
     60  N          3.0420   13.7900   19.2150 N.3    58  LEU58      -0.1245
     61  CA         3.6570   12.5060   19.5570 C.3    58  LEU58       0.1561
     62  C          4.1870   12.4470   20.9820 C.2    58  LEU58       0.2260
     63  O          4.0050   11.4310   21.6790 O.2    58  LEU58      -0.2867
     64  CB         4.8400   12.1510   18.6640 C.3    58  LEU58       0.0270
     65  CG         4.7770   11.9630   17.1550 C.3    58  LEU58       0.0019
     66  CD1        5.2700   10.6010   16.6720 C.3    58  LEU58       0.0001
     67  CD2        3.4980   12.5290   16.5190 C.3    58  LEU58       0.0001
     68  N          1.3880   11.8130   23.4420 N.3    61  GLY61      -0.1210
     69  CA         0.5200   10.6500   23.2530 C.3    61  GLY61       0.1956
     70  C         -0.7910   11.0160   22.5670 C.2    61  GLY61       0.2612
     71  O         -1.6930   10.1840   22.4730 O.2    61  GLY61      -0.2717
     72  N         -0.9070   12.2690   22.1220 N.am   62  ASP62      -0.1959
     73  CA        -2.0890   12.7490   21.3980 C.3    62  ASP62       0.1840
     74  C         -2.0000   12.3300   19.9430 C.2    62  ASP62       0.2622
     75  O         -0.9050   12.1500   19.4140 O.2    62  ASP62      -0.2715
     76  CB        -2.1520   14.2960   21.4210 C.3    62  ASP62       0.1450
     77  CG        -2.5880   14.8680   22.7840 C.2    62  ASP62       0.3671
     78  OD1       -3.3180   14.1890   23.5370 O.co2  62  ASP62      -0.2456
     79  OD2       -2.2050   16.0300   23.0850 O.co2  62  ASP62      -0.2456
     80  N         -3.1420   12.2480   19.2610 N.am   63  LEU63      -0.1963
     81  CA        -3.1070   12.0840   17.8060 C.3    63  LEU63       0.1728
     82  C         -2.6850   13.3890   17.1450 C.2    63  LEU63       0.2616
     83  O         -3.1150   14.4650   17.5850 O.2    63  LEU63      -0.2715
     84  CB        -4.4740   11.6510   17.2610 C.3    63  LEU63       0.0311
     85  CG        -5.0260   10.2940   17.7210 C.3    63  LEU63       0.0022
     86  CD1       -6.3780   10.0520   17.0160 C.3    63  LEU63       0.0001
     87  CD2       -4.0370    9.1650   17.4240 C.3    63  LEU63       0.0001
     88  N         -1.8220   13.3000   16.1220 N.am   64  VAL64      -0.1977
     89  CA        -1.5760   14.4220   15.2170 C.3    64  VAL64       0.1596
     90  C         -2.8850   14.7660   14.5140 C.2    64  VAL64       0.2287
     91  O         -3.6270   13.8450   14.1520 O.2    64  VAL64      -0.2864
     92  CB        -0.4770   14.0790   14.1630 C.3    64  VAL64       0.0276
     93  CG1       -0.2020   15.2790   13.2000 C.3    64  VAL64       0.0022
     94  CG2        0.7870   13.6840   14.8790 C.3    64  VAL64       0.0022
     95  N         -2.2900   14.1960    9.0420 N.3    69  THR69      -0.1218
     96  CA        -2.1180   12.7560    8.9270 C.3    69  THR69       0.1862
     97  C         -2.6970   12.2360    7.6090 C.2    69  THR69       0.2287
     98  O         -2.0710   11.4110    6.9400 O.2    69  THR69      -0.2866
     99  CB        -2.7540   12.0030   10.1430 C.3    69  THR69       0.1770
    100  OG1       -2.3120   12.6100   11.3710 O.3    69  THR69      -0.2211
    101  CG2       -2.3300   10.5290   10.1300 C.3    69  THR69       0.0375
    102  N         -0.3890    0.1170    9.6660 N.3    89  ASP89      -0.1225
    103  CA        -0.1260   -0.1070   11.0900 C.3    89  ASP89       0.1805
    104  C         -0.2820    1.2580   11.7900 C.2    89  ASP89       0.2598
    105  O          0.5630    2.1290   11.6180 O.2    89  ASP89      -0.2718
    106  CB         1.2970   -0.6850   11.2350 C.3    89  ASP89       0.1424
    107  CG         1.9230   -0.4690   12.6220 C.2    89  ASP89       0.3668
    108  OD1        1.1910   -0.3040   13.6160 O.co2  89  ASP89      -0.2456
    109  OD2        3.1790   -0.4490   12.7120 O.co2  89  ASP89      -0.2456
    110  N         -1.3690    1.4690   12.5230 N.am   90  GLY90      -0.1942
    111  CA        -1.5860    2.7500   13.2420 C.3    90  GLY90       0.2014
    112  C         -2.3330    3.8480   12.4800 C.2    90  GLY90       0.2638
    113  O         -2.4500    4.9910   12.9640 O.2    90  GLY90      -0.2714
    114  N         -2.8230    3.5090   11.2830 N.am   91  TYR91      -0.1973
    115  CA        -3.7570    4.3730   10.5320 C.3    91  TYR91       0.1639
    116  C         -4.7840    3.4480    9.8700 C.2    91  TYR91       0.2290
    117  O         -4.4010    2.4060    9.3260 O.2    91  TYR91      -0.2864
    118  CB        -3.0280    5.2440    9.4860 C.3    91  TYR91       0.0560
    119  CG        -3.9170    6.1860    8.6950 C.ar   91  TYR91      -0.0198
    120  CD1       -4.0840    7.5140    9.1020 C.ar   91  TYR91      -0.0009
    121  CD2       -4.5540    5.7600    7.5070 C.ar   91  TYR91      -0.0009
    122  CE1       -4.9090    8.4060    8.3640 C.ar   91  TYR91       0.0417
    123  CE2       -5.3560    6.6440    6.7470 C.ar   91  TYR91       0.0417
    124  CZ        -5.5300    7.9490    7.1770 C.ar   91  TYR91       0.1957
    125  OH        -6.3120    8.8070    6.4470 O.3    91  TYR91      -0.2866
    126  N         -6.9420    5.8350   12.7920 N.3    93  ARG93      -0.1245
    127  CA        -7.1200    5.7720   14.2460 C.3    93  ARG93       0.1563
    128  C         -8.3600    6.5810   14.6820 C.2    93  ARG93       0.2260
    129  O         -8.5410    6.8530   15.8710 O.2    93  ARG93      -0.2867
    130  CB        -5.8930    6.3130   14.9680 C.3    93  ARG93       0.0307
    131  CG        -4.7730    5.2710   15.1430 C.3    93  ARG93       0.0489
    132  CD        -3.5770    5.8890   15.8500 C.3    93  ARG93       0.2205
    133  NE        -2.9550    4.8660   16.6690 N.pl3  93  ARG93      -0.0865
    134  CZ        -1.6890    4.4760   16.6060 C.cat  93  ARG93       0.5346
    135  NH1       -0.8400    5.0070   15.7270 N.pl3  93  ARG93       0.1354
    136  NH2       -1.2760    3.5080   17.4230 N.pl3  93  ARG93       0.1354
    137  N        -10.4470    9.5590    9.8240 N.3    97  GLN97      -0.1245
    138  CA        -9.3560    8.9240    9.0610 C.3    97  GLN97       0.1566
    139  C         -9.7930    7.6880    8.2300 C.2    97  GLN97       0.2260
    140  O         -9.3600    7.5330    7.0830 O.2    97  GLN97      -0.2867
    141  CB        -8.2050    8.5710   10.0020 C.3    97  GLN97       0.0367
    142  CG        -7.4680    9.8180   10.4840 C.3    97  GLN97       0.0905
    143  CD        -6.3850    9.4870   11.4910 C.2    97  GLN97       0.2608
    144  OE1       -6.0260    8.3250   11.6880 O.2    97  GLN97      -0.2717
    145  NE2       -5.8510   10.5130   12.1230 N.am   97  GLN97      -0.0878
    146  N          9.4460   -1.9780   26.1850 N.3   132  ARG132     -0.1245
    147  CA         9.8690   -1.3270   24.9370 C.3   132  ARG132      0.1563
    148  C         10.7550   -0.1060   25.1750 C.2   132  ARG132      0.2260
    149  O         11.8320    0.0060   24.5850 O.2   132  ARG132     -0.2867
    150  CB         8.6790   -0.9660   24.0590 C.3   132  ARG132      0.0307
    151  CG         9.0760   -0.5740   22.6430 C.3   132  ARG132      0.0489
    152  CD         7.8530   -0.4390   21.7580 C.3   132  ARG132      0.2205
    153  NE         6.9720    0.6630   22.1540 N.pl3 132  ARG132     -0.0865
    154  CZ         5.8410    0.9450   21.5260 C.cat 132  ARG132      0.5346
    155  NH1        5.4520    0.1870   20.4950 N.pl3 132  ARG132      0.1354
    156  NH2        5.1000    1.9690   21.9220 N.pl3 132  ARG132      0.1354
    157  N         10.3520    3.1500   24.3900 N.3   134  ARG134     -0.1245
    158  CA        10.4130    4.2260   23.4190 C.3   134  ARG134      0.1563
    159  C         10.1320    5.5060   24.2140 C.2   134  ARG134      0.2260
    160  O          9.6850    5.4250   25.3700 O.2   134  ARG134     -0.2867
    161  CB         9.3800    3.9720   22.3010 C.3   134  ARG134      0.0307
    162  CG         9.5860    4.7300   20.9920 C.3   134  ARG134      0.0489
    163  CD         8.5890    4.2010   19.9650 C.3   134  ARG134      0.2205
    164  NE         7.2250    4.6370   20.2710 N.pl3 134  ARG134     -0.0865
    165  CZ         6.1350    4.1310   19.7050 C.cat 134  ARG134      0.5346
    166  NH1        6.2480    3.1320   18.8390 N.pl3 134  ARG134      0.1354
    167  NH2        4.9250    4.6170   20.0070 N.pl3 134  ARG134      0.1354
    168  N          7.8270    7.8100   24.2080 N.3   136  ASP136     -0.1239
    169  CA         6.4370    7.9610   24.6630 C.3   136  ASP136      0.1674
    170  C          5.9320    6.8280   25.5670 C.2   136  ASP136      0.2266
    171  O          4.7580    6.7880   25.9390 O.2   136  ASP136     -0.2867
    172  CB         5.4710    8.1940   23.4820 C.3   136  ASP136      0.1410
    173  CG         5.5740    7.1290   22.3670 C.2   136  ASP136      0.3668
    174  OD1        6.6050    6.4110   22.2750 O.co2 136  ASP136     -0.2456
    175  OD2        4.6100    7.0500   21.5370 O.co2 136  ASP136     -0.2456
    176  N         -2.4680    7.8040   25.8480 N.3   145  ARG145     -0.1245
    177  CA        -2.6180    6.9900   24.6100 C.3   145  ARG145      0.1563
    178  C         -3.7760    5.9490   24.7100 C.2   145  ARG145      0.2260
    179  O         -4.5010    5.6810   23.7360 O.2   145  ARG145     -0.2867
    180  CB        -1.3010    6.2890   24.2980 C.3   145  ARG145      0.0307
    181  CG        -0.2480    7.2380   23.7330 C.3   145  ARG145      0.0489
    182  CD         1.1240    6.6560   23.8870 C.3   145  ARG145      0.2205
    183  NE         1.5030    5.6590   22.8940 N.pl3 145  ARG145     -0.0865
    184  CZ         2.4980    4.7920   23.0860 C.cat 145  ARG145      0.5346
    185  NH1        3.2020    4.7740   24.2460 N.pl3 145  ARG145      0.1354
    186  NH2        2.7900    3.9390   22.1250 N.pl3 145  ARG145      0.1354
@<TRIPOS>BOND
     1   125   124    1
     2   123   124   ar
     3   123   121   ar
     4    98    97    2
     5   140   139    2
     6   124   122   ar
     7   121   119   ar
     8    97    96    1
     9   139   138    1
    10   122   120   ar
    11    21    22    1
    12   119   120   ar
    13   119   118    1
    14    96    95    1
    15    96    99    1
    16   138   137    1
    17   138   141    1
    18   117   116    2
    19    33    31    1
    20   118   115    1
    21    24    23    2
    22   102   103    1
    23   116   115    1
    24    22    23    1
    25    22    25    1
    26    23    27   am
    27   141   142    1
    28   101    99    1
    29    99   100    1
    30    27    28    1
    31    28    31    1
    32    28    29    1
    33   142   143    1
    34   115   114    1
    35    31    32    1
    36    25    26    1
    37    38    39    1
    38   103   106    1
    39   103   104    1
    40    46    48   ar
    41    46    44   ar
    42   106   107    1
    43   114   112   am
    44    30    29    2
    45    48    47   ar
    46   143   144    2
    47   143   145   am
    48    29    34   am
    49   105   104    2
    50    44    43   ar
    51    39    40    1
    52    39    42    1
    53   104   110   am
    54    47    45   ar
    55    43    45   ar
    56    43    42    1
    57    40    41    2
    58    40    49   am
    59   112   113    2
    60   112   111    1
    61   110   111    1
    62    51    52    2
    63    51    50    1
    64   107   109   ar
    65   107   108   ar
    66    34    35    1
    67   126   127    1
    68    49    50    1
    69    93    92    1
    70    36    37    2
    71    36    35    1
    72    15    14    2
    73    50    53    1
    74    91    90    2
    75    92    94    1
    76    92    89    1
    77   127   128    1
    78   127   130    1
    79    53    54    1
    80    90    89    1
    81    14    13    1
    82   128   129    2
    83   130   131    1
    84   131   132    1
    85    89    88    1
    86    59    57    1
    87    16    13    1
    88    16    17    1
    89    13    12    1
    90    54    55    1
    91   135   134    1
    92   132   133    1
    93    56    57    2
    94    56    55    1
    95    57    58    1
    96    88    82   am
    97    18    17    1
    98    18    19    1
    99    67    65    1
   100   134   133    2
   101   134   136    1
   102    19    20    1
   103    66    65    1
   104    86    85    1
   105    82    83    2
   106    82    81    1
   107    65    64    1
   108    84    85    1
   109    84    81    1
   110    87    85    1
   111    81    80    1
   112    64    61    1
   113   166   165    1
   114    60    61    1
   115    80    74   am
   116    75    74    2
   117    61    62    1
   118   165   167    1
   119   165   164    2
   120    74    73    1
   121   163   164    1
   122   163   162    1
   123   155   154    1
   124    62    63    2
   125   162   161    1
   126    73    76    1
   127    73    72    1
   128    76    77    1
   129   154   156    1
   130   154   153    2
   131   175   173   ar
   132   152   153    1
   133   152   151    1
   134     1     2    1
   135     1     7    1
   136     2     5    1
   137     2     3    1
   138     8     9    1
   139     8     3   am
   140    72    70   am
   141   186   184    1
   142    10    11    2
   143    10     9    1
   144   174   173   ar
   145     7     6    1
   146   161   158    1
   147   173   172    1
   148    71    70    2
   149    70    69    1
   150   151   150    1
   151     5     6    1
   152     3     4    2
   153    77    79   ar
   154    77    78   ar
   155   183   184    2
   156   183   182    1
   157   184   185    1
   158    69    68    1
   159   158   159    1
   160   158   157    1
   161   172   169    1
   162   181   182    1
   163   181   180    1
   164   179   178    2
   165   150   147    1
   166   168   169    1
   167   159   160    2
   168   180   177    1
   169   149   148    2
   170   177   178    1
   171   177   176    1
   172   169   170    1
   173   147   148    1
   174   147   146    1
   175   170   171    2
