@<TRIPOS>MOLECULE
tmp/2cdnA01.pdb
 164 155 0 0 0
SMALL
GASTEIGER

@<TRIPOS>ATOM
      1  N         -2.0310    0.7400   21.8360 N.3    14  PRO14      -0.2102
      2  CA        -0.5620    0.8230   21.9170 C.3    14  PRO14       0.1504
      3  C          0.0100   -0.3690   22.6740 C.2    14  PRO14       0.2576
      4  O         -0.4720   -0.7320   23.7500 O.2    14  PRO14      -0.2718
      5  CB        -0.3160    2.1430   22.6640 C.3    14  PRO14       0.0282
      6  CG        -1.6740    2.5350   23.2610 C.3    14  PRO14       0.0208
      7  CD        -2.6580    2.0090   22.2750 C.3    14  PRO14       0.0893
      8  N          0.9970   -1.0060   22.0830 N.am   15  GLY15      -0.1943
      9  CA         1.5770   -2.1960   22.6660 C.3    15  GLY15       0.2014
     10  C          0.9780   -3.5090   22.2230 C.2    15  GLY15       0.2639
     11  O          1.4420   -4.5570   22.6570 O.2    15  GLY15      -0.2714
     12  N         -0.0590   -3.4770   21.3680 N.am   16  ALA16      -0.1963
     13  CA        -0.7750   -4.7160   21.0060 C.3    16  ALA16       0.1728
     14  C          0.0740   -5.6600   20.1270 C.2    16  ALA16       0.2617
     15  O         -0.2620   -6.8370   19.9810 O.2    16  ALA16      -0.2715
     16  CB        -2.1240   -4.3850   20.3300 C.3    16  ALA16       0.0334
     17  N          1.2010   -5.1750   19.6120 N.am   17  GLY17      -0.1940
     18  CA         2.0960   -5.9630   18.7280 C.3    17  GLY17       0.2014
     19  C          1.8810   -5.7030   17.2410 C.2    17  GLY17       0.2639
     20  O          2.2690   -6.5180   16.3990 O.2    17  GLY17      -0.2714
     21  N          1.2510   -4.5690   16.9280 N.am   18  LYS18      -0.1963
     22  CA         0.9080   -4.1950   15.5280 C.3    18  LYS18       0.1728
     23  C          2.1590   -4.0110   14.6450 C.2    18  LYS18       0.2617
     24  O          2.2440   -4.5650   13.5520 O.2    18  LYS18      -0.2715
     25  CB         0.0540   -2.9250   15.5170 C.3    18  LYS18       0.0311
     26  CG        -1.3190   -3.0810   16.1620 C.3    18  LYS18       0.0038
     27  CD        -2.1580   -1.8010   16.1290 C.3    18  LYS18       0.0206
     28  CE        -1.4270   -0.5380   16.6530 C.3    18  LYS18       0.1093
     29  NZ        -1.0630   -0.5990   18.0780 N.3    18  LYS18      -0.1314
     30  N          3.1270   -3.2320   15.1220 N.am   19  GLY19      -0.1940
     31  CA         4.3920   -3.0300   14.3880 C.3    19  GLY19       0.2014
     32  C          5.0810   -4.3510   14.1770 C.2    19  GLY19       0.2640
     33  O          5.5530   -4.6360   13.0920 O.2    19  GLY19      -0.2714
     34  N          5.1030   -5.1640   15.2310 N.am   20  THR20      -0.1936
     35  CA         5.7310   -6.4830   15.2280 C.3    20  THR20       0.2028
     36  C          5.1920   -7.4250   14.1650 C.2    20  THR20       0.2642
     37  O          5.9620   -8.0160   13.3820 O.2    20  THR20      -0.2714
     38  CB         5.6070   -7.1210   16.6030 C.3    20  THR20       0.1808
     39  OG1        6.4290   -6.3910   17.5140 O.3    20  THR20      -0.2208
     40  CG2        6.0330   -8.5700   16.5630 C.3    20  THR20       0.0379
     41  N          3.8700   -7.5630   14.1310 N.am   21  GLN21      -0.1976
     42  CA         3.2060   -8.4290   13.1610 C.3    21  GLN21       0.1601
     43  C          3.1460   -7.8360   11.7530 C.2    21  GLN21       0.2287
     44  O          3.1490   -8.5820   10.7740 O.2    21  GLN21      -0.2864
     45  CB         1.8180   -8.8000   13.6670 C.3    21  GLN21       0.0394
     46  CG         1.8500   -9.6000   14.9850 C.3    21  GLN21       0.0908
     47  CD         2.6290  -10.9000   14.8190 C.2    21  GLN21       0.2608
     48  OE1        2.6590  -11.4440   13.7300 O.2    21  GLN21      -0.2717
     49  NE2        3.2580  -11.3930   15.8980 N.am   21  GLN21      -0.0878
     50  N         -0.3890    0.1170    9.6660 N.3    89  ASP89      -0.1239
     51  CA        -0.1260   -0.1070   11.0900 C.3    89  ASP89       0.1674
     52  C         -0.2820    1.2580   11.7900 C.2    89  ASP89       0.2266
     53  O          0.5630    2.1290   11.6180 O.2    89  ASP89      -0.2867
     54  CB         1.2970   -0.6850   11.2350 C.3    89  ASP89       0.1410
     55  CG         1.9230   -0.4690   12.6220 C.2    89  ASP89       0.3668
     56  OD1        1.1910   -0.3040   13.6160 O.co2  89  ASP89      -0.2456
     57  OD2        3.1790   -0.4490   12.7120 O.co2  89  ASP89      -0.2456
     58  N         -6.9420    5.8350   12.7920 N.3    93  ARG93      -0.1245
     59  CA        -7.1200    5.7720   14.2460 C.3    93  ARG93       0.1563
     60  C         -8.3600    6.5810   14.6820 C.2    93  ARG93       0.2260
     61  O         -8.5410    6.8530   15.8710 O.2    93  ARG93      -0.2867
     62  CB        -5.8930    6.3130   14.9680 C.3    93  ARG93       0.0307
     63  CG        -4.7730    5.2710   15.1430 C.3    93  ARG93       0.0489
     64  CD        -3.5770    5.8890   15.8500 C.3    93  ARG93       0.2205
     65  NE        -2.9550    4.8660   16.6690 N.pl3  93  ARG93      -0.0865
     66  CZ        -1.6890    4.4760   16.6060 C.cat  93  ARG93       0.5346
     67  NH1       -0.8400    5.0070   15.7270 N.pl3  93  ARG93       0.1354
     68  NH2       -1.2760    3.5080   17.4230 N.pl3  93  ARG93       0.1354
     69  N          3.0050   -4.1310   30.4630 N.3   127  GLU127     -0.1231
     70  CA         4.2880   -4.8040   30.6040 C.3   127  GLU127      0.1699
     71  C          5.1400   -4.7320   29.3310 C.2   127  GLU127      0.2592
     72  O          6.3690   -4.5490   29.3890 O.2   127  GLU127     -0.2718
     73  CB         4.0910   -6.2500   31.0270 C.3   127  GLU127      0.0402
     74  CG         3.2210   -7.0390   30.0740 C.3   127  GLU127      0.1161
     75  CD         3.5660   -8.5080   30.0460 C.2   127  GLU127      0.3649
     76  OE1        3.4980   -9.1420   31.1380 O.co2 127  GLU127     -0.2457
     77  OE2        3.9070   -9.0100   28.9340 O.co2 127  GLU127     -0.2457
     78  N          4.4800   -4.8580   28.1740 N.am  128  ARG128     -0.1966
     79  CA         5.1430   -4.7010   26.8840 C.3   128  ARG128      0.1729
     80  C          5.7050   -3.3020   26.6340 C.2   128  ARG128      0.2616
     81  O          6.8510   -3.1720   26.1600 O.2   128  ARG128     -0.2715
     82  CB         4.1730   -5.0460   25.7540 C.3   128  ARG128      0.0348
     83  CG         3.9050   -6.5480   25.6200 C.3   128  ARG128      0.0492
     84  CD         2.9090   -6.7240   24.5430 C.3   128  ARG128      0.2205
     85  NE         2.5760   -8.1080   24.3090 N.pl3 128  ARG128     -0.0865
     86  CZ         1.7600   -8.5010   23.3440 C.cat 128  ARG128      0.5346
     87  NH1        1.2620   -7.5970   22.5140 N.pl3 128  ARG128      0.1354
     88  NH2        1.4780   -9.7980   23.1920 N.pl3 128  ARG128      0.1354
     89  N          4.8970   -2.2710   26.8940 N.am  129  LEU129     -0.1977
     90  CA         5.3280   -0.8920   26.6840 C.3   129  LEU129      0.1596
     91  C          6.4570   -0.5090   27.6120 C.2   129  LEU129      0.2287
     92  O          7.3990    0.1650   27.1930 O.2   129  LEU129     -0.2864
     93  CB         4.1720    0.0940   26.8330 C.3   129  LEU129      0.0297
     94  CG         3.0640   -0.0800   25.7810 C.3   129  LEU129      0.0022
     95  CD1        1.9040    0.8400   26.1260 C.3   129  LEU129      0.0001
     96  CD2        3.6200    0.1770   24.3780 C.3   129  LEU129      0.0001
     97  N          8.6380   -2.6240   28.8010 N.3   131  GLY131     -0.1210
     98  CA         9.7980   -3.3000   28.2120 C.3   131  GLY131      0.1956
     99  C         10.3220   -2.6580   26.9290 C.2   131  GLY131      0.2611
    100  O         11.5180   -2.7550   26.6140 O.2   131  GLY131     -0.2717
    101  N          9.4460   -1.9780   26.1850 N.am  132  ARG132     -0.1979
    102  CA         9.8690   -1.3270   24.9370 C.3   132  ARG132      0.1597
    103  C         10.7550   -0.1060   25.1750 C.2   132  ARG132      0.2287
    104  O         11.8320    0.0060   24.5850 O.2   132  ARG132     -0.2864
    105  CB         8.6790   -0.9660   24.0590 C.3   132  ARG132      0.0334
    106  CG         9.0760   -0.5740   22.6430 C.3   132  ARG132      0.0492
    107  CD         7.8530   -0.4390   21.7580 C.3   132  ARG132      0.2205
    108  NE         6.9720    0.6630   22.1540 N.pl3 132  ARG132     -0.0865
    109  CZ         5.8410    0.9450   21.5260 C.cat 132  ARG132      0.5346
    110  NH1        5.4520    0.1870   20.4950 N.pl3 132  ARG132      0.1354
    111  NH2        5.1000    1.9690   21.9220 N.pl3 132  ARG132      0.1354
    112  N         10.3520    3.1500   24.3900 N.3   134  ARG134     -0.1245
    113  CA        10.4130    4.2260   23.4190 C.3   134  ARG134      0.1563
    114  C         10.1320    5.5060   24.2140 C.2   134  ARG134      0.2260
    115  O          9.6850    5.4250   25.3700 O.2   134  ARG134     -0.2867
    116  CB         9.3800    3.9720   22.3010 C.3   134  ARG134      0.0307
    117  CG         9.5860    4.7300   20.9920 C.3   134  ARG134      0.0489
    118  CD         8.5890    4.2010   19.9650 C.3   134  ARG134      0.2205
    119  NE         7.2250    4.6370   20.2710 N.pl3 134  ARG134     -0.0865
    120  CZ         6.1350    4.1310   19.7050 C.cat 134  ARG134      0.5346
    121  NH1        6.2480    3.1320   18.8390 N.pl3 134  ARG134      0.1354
    122  NH2        4.9250    4.6170   20.0070 N.pl3 134  ARG134      0.1354
    123  N         -2.4680    7.8040   25.8480 N.3   145  ARG145     -0.1245
    124  CA        -2.6180    6.9900   24.6100 C.3   145  ARG145      0.1563
    125  C         -3.7760    5.9490   24.7100 C.2   145  ARG145      0.2260
    126  O         -4.5010    5.6810   23.7360 O.2   145  ARG145     -0.2867
    127  CB        -1.3010    6.2890   24.2980 C.3   145  ARG145      0.0307
    128  CG        -0.2480    7.2380   23.7330 C.3   145  ARG145      0.0489
    129  CD         1.1240    6.6560   23.8870 C.3   145  ARG145      0.2205
    130  NE         1.5030    5.6590   22.8940 N.pl3 145  ARG145     -0.0865
    131  CZ         2.4980    4.7920   23.0860 C.cat 145  ARG145      0.5346
    132  NH1        3.2020    4.7740   24.2460 N.pl3 145  ARG145      0.1354
    133  NH2        2.7900    3.9390   22.1250 N.pl3 145  ARG145      0.1354
    134  N         -4.1720  -11.7560   20.6670 N.3   169  ALA169     -0.1245
    135  CA        -2.8530  -11.2270   20.3700 C.3   169  ALA169      0.1562
    136  C         -1.8750  -11.3980   21.5650 C.2   169  ALA169      0.2260
    137  O         -0.7940  -10.8020   21.6180 O.2   169  ALA169     -0.2867
    138  CB        -2.9860   -9.7430   19.9100 C.3   169  ALA169      0.0290
    139  N          0.3680  -14.1680   23.3360 N.3   171  GLY171     -0.1210
    140  CA         1.0220  -15.4180   23.0160 C.3   171  GLY171      0.1956
    141  C          2.3920  -15.0990   22.4790 C.2   171  GLY171      0.2613
    142  O          2.8280  -13.9560   22.5260 O.2   171  GLY171     -0.2717
    143  N          3.0850  -16.1030   21.9500 N.am  172  THR172     -0.1938
    144  CA         4.3980  -15.8230   21.3830 C.3   172  THR172      0.2028
    145  C          4.1980  -15.0740   20.0630 C.2   172  THR172      0.2642
    146  O          3.1100  -15.1260   19.4670 O.2   172  THR172     -0.2714
    147  CB         5.2230  -17.1050   21.1280 C.3   172  THR172      0.1808
    148  OG1        4.6250  -17.8670   20.0770 O.3   172  THR172     -0.2208
    149  CG2        5.3880  -17.9530   22.4200 C.3   172  THR172      0.0379
    150  N          5.2450  -14.3980   19.6070 N.am  173  MET173     -0.1976
    151  CA         5.2280  -13.7430   18.2920 C.3   173  MET173      0.1605
    152  C          4.8000  -14.6790   17.1480 C.2   173  MET173      0.2287
    153  O          3.9780  -14.3230   16.2840 O.2   173  MET173     -0.2864
    154  CB         6.5910  -13.1170   18.0150 C.3   173  MET173      0.0413
    155  CG         6.7820  -11.7970   18.7860 C.3   173  MET173      0.0598
    156  SD         8.3740  -10.9540   18.5790 S.3   173  MET173     -0.1393
    157  CE         8.6220  -11.0540   16.8000 C.3   173  MET173      0.0692
    158  N          0.9850  -15.5160   17.5350 N.3   176  VAL176     -0.1245
    159  CA         0.1210  -14.4170   17.0930 C.3   176  VAL176      0.1561
    160  C          0.1830  -14.2750   15.5640 C.2   176  VAL176      0.2260
    161  O         -0.8500  -14.1000   14.9140 O.2   176  VAL176     -0.2867
    162  CB         0.4760  -13.1280   17.8240 C.3   176  VAL176      0.0252
    163  CG1       -0.3360  -11.9140   17.2820 C.3   176  VAL176      0.0019
    164  CG2        0.2670  -13.3040   19.3560 C.3   176  VAL176      0.0019
@<TRIPOS>BOND
     1    50    51    1
     2    44    43    2
     3    51    54    1
     4    51    52    1
     5    54    55    1
     6    53    52    2
     7    43    42    1
     8    55    57   ar
     9    55    56   ar
    10    58    59    1
    11    33    32    2
    12    42    45    1
    13    42    41    1
    14    37    36    2
    15    24    23    2
    16    45    46    1
    17    48    47    2
    18    41    36   am
    19    36    35    1
    20    32    31    1
    21    32    34   am
    22    59    60    1
    23    59    62    1
    24    31    30    1
    25    23    30   am
    26    23    22    1
    27    60    61    2
    28    47    46    1
    29    47    49   am
    30   161   160    2
    31    62    63    1
    32    63    64    1
    33    35    34    1
    34    35    38    1
    35    25    22    1
    36    25    26    1
    37    22    21    1
    38   160   159    1
    39    67    66    1
    40    64    65    1
    41    27    26    1
    42    27    28    1
    43   153   152    2
    44    20    19    2
    45    40    38    1
    46    38    39    1
    47    66    65    2
    48    66    68    1
    49    28    29    1
    50   157   156    1
    51    21    19   am
    52   159   158    1
    53   159   162    1
    54   152   151    1
    55    19    18    1
    56   163   162    1
    57   162   164    1
    58   154   151    1
    59   154   155    1
    60   151   150    1
    61   156   155    1
    62    18    17    1
    63   121   120    1
    64   146   145    2
    65   150   145   am
    66    17    14   am
    67   120   122    1
    68   120   119    2
    69   138   135    1
    70   118   119    1
    71   118   117    1
    72    15    14    2
    73   145   144    1
    74   148   147    1
    75    14    13    1
    76    16    13    1
    77   135   134    1
    78   135   136    1
    79   110   109    1
    80   117   116    1
    81    13    12    1
    82   147   144    1
    83   147   149    1
    84    12    10   am
    85   144   143    1
    86   109   111    1
    87   109   108    2
    88   136   137    2
    89   107   108    1
    90   107   106    1
    91     1     2    1
    92     1     7    1
    93     2     5    1
    94     2     3    1
    95   143   141   am
    96     8     9    1
    97     8     3   am
    98   133   131    1
    99    10    11    2
   100    10     9    1
   101     7     6    1
   102   116   113    1
   103   141   142    2
   104   141   140    1
   105    87    86    1
   106   106   105    1
   107     5     6    1
   108     3     4    2
   109   130   131    2
   110   130   129    1
   111   140   139    1
   112   131   132    1
   113    88    86    1
   114    86    85    2
   115   113   114    1
   116   113   112    1
   117   128   129    1
   118   128   127    1
   119   126   125    2
   120   105   102    1
   121   114   115    2
   122   127   124    1
   123    85    84    1
   124    96    94    1
   125    84    83    1
   126   104   103    2
   127   124   125    1
   128   124   123    1
   129   102   103    1
   130   102   101    1
   131    83    82    1
   132    82    79    1
   133    94    95    1
   134    94    93    1
   135    81    80    2
   136   101    99   am
   137   100    99    2
   138    80    79    1
   139    80    89   am
   140    90    93    1
   141    90    89    1
   142    90    91    1
   143    79    78    1
   144    99    98    1
   145    92    91    2
   146    78    71   am
   147    98    97    1
   148    77    75   ar
   149    71    72    2
   150    71    70    1
   151    75    74    1
   152    75    76   ar
   153    74    73    1
   154    69    70    1
   155    70    73    1
