@<TRIPOS>MOLECULE
tmp/2cdpA00.pdb
 102 101 0 0 0
SMALL
GASTEIGER

@<TRIPOS>ATOM
      1  N         40.8280   10.5830   46.4890 N.3    30  TYR30      -0.1241
      2  CA        40.8210    9.3930   47.3260 C.3    30  TYR30       0.1605
      3  C         39.4960    8.6580   47.1400 C.2    30  TYR30       0.2264
      4  O         38.6070    9.1590   46.4500 O.2    30  TYR30      -0.2867
      5  CB        41.1030    9.7530   48.8000 C.3    30  TYR30       0.0534
      6  CG        39.9300   10.2850   49.5830 C.ar   30  TYR30      -0.0201
      7  CD1       39.4720    9.6070   50.7100 C.ar   30  TYR30      -0.0009
      8  CD2       39.2980   11.4850   49.2310 C.ar   30  TYR30      -0.0009
      9  CE1       38.3970   10.0970   51.4780 C.ar   30  TYR30       0.0417
     10  CE2       38.2230   11.9800   49.9970 C.ar   30  TYR30       0.0417
     11  CZ        37.7740   11.2820   51.1110 C.ar   30  TYR30       0.1957
     12  OH        36.6950   11.7390   51.8760 O.3    30  TYR30      -0.2866
     13  N         40.0680   15.5450   48.1620 N.3    39  ASN39      -0.1225
     14  CA        40.3600   15.9540   49.5450 C.3    39  ASN39       0.1785
     15  C         41.6500   16.7140   49.5560 C.2    39  ASN39       0.2597
     16  O         42.1560   17.0820   48.4880 O.2    39  ASN39      -0.2718
     17  CB        40.3640   14.7720   50.5330 C.3    39  ASN39       0.1169
     18  CG        41.5220   13.7700   50.3010 C.2    39  ASN39       0.2627
     19  OD1       42.1530   13.7250   49.2440 O.2    39  ASN39      -0.2716
     20  ND2       41.7920   12.9510   51.3420 N.am   39  ASN39      -0.0877
     21  N         42.1960   16.9750   50.7400 N.am   40  TYR40      -0.1962
     22  CA        43.2640   17.9510   50.8640 C.3    40  TYR40       0.1771
     23  C         42.8790   19.2940   50.1950 C.2    40  TYR40       0.2619
     24  O         43.7030   19.9550   49.5810 O.2    40  TYR40      -0.2715
     25  CB        44.5720   17.4140   50.2380 C.3    40  TYR40       0.0574
     26  CG        45.2470   16.3670   51.1040 C.ar   40  TYR40      -0.0198
     27  CD1       46.2030   16.7460   52.0960 C.ar   40  TYR40      -0.0009
     28  CD2       44.9330   15.0200   50.9590 C.ar   40  TYR40      -0.0009
     29  CE1       46.8290   15.7650   52.8910 C.ar   40  TYR40       0.0417
     30  CE2       45.5420   14.0430   51.7230 C.ar   40  TYR40       0.0417
     31  CZ        46.4810   14.4110   52.6860 C.ar   40  TYR40       0.1957
     32  OH        47.0560   13.4200   53.4340 O.3    40  TYR40      -0.2866
     33  N         41.6220   19.6760   50.3030 N.am   41  VAL41      -0.1977
     34  CA        41.1890   20.9830   49.8540 C.3    41  VAL41       0.1596
     35  C         41.4020   22.0150   50.9500 C.2    41  VAL41       0.2287
     36  O         40.7170   21.9720   51.9880 O.2    41  VAL41      -0.2864
     37  CB        39.7030   21.0130   49.3190 C.3    41  VAL41       0.0276
     38  CG1       39.3830   22.3680   48.6890 C.3    41  VAL41       0.0022
     39  CG2       39.4450   19.8450   48.2970 C.3    41  VAL41       0.0022
     40  N         35.2850   18.1970   57.9870 N.3    68  GLY68      -0.1210
     41  CA        35.6010   17.8890   59.4120 C.3    68  GLY68       0.1956
     42  C         35.9500   19.1340   60.2300 C.2    68  GLY68       0.2611
     43  O         36.3580   19.0250   61.3940 O.2    68  GLY68      -0.2717
     44  N         35.7860   20.3070   59.6340 N.am   69  VAL69      -0.1979
     45  CA        36.0140   21.5640   60.3200 C.3    69  VAL69       0.1595
     46  C         34.8330   22.5150   60.0970 C.2    69  VAL69       0.2287
     47  O         33.9930   22.2860   59.2150 O.2    69  VAL69      -0.2864
     48  CB        37.3450   22.2630   59.8540 C.3    69  VAL69       0.0276
     49  CG1       38.5670   21.3660   60.0490 C.3    69  VAL69       0.0022
     50  CG2       37.2520   22.6410   58.3510 C.3    69  VAL69       0.0022
     51  N         34.7370   14.3630   57.6150 N.3    97  TRP97      -0.1227
     52  CA        35.4400   14.4300   56.3210 C.3    97  TRP97       0.1737
     53  C         34.9210   13.4630   55.2700 C.2    97  TRP97       0.2595
     54  O         34.8580   13.8130   54.0890 O.2    97  TRP97      -0.2718
     55  CB        36.9460   14.2260   56.5340 C.3    97  TRP97       0.0564
     56  CG        37.6530   15.4130   57.1720 C.ar   97  TRP97       0.0003
     57  CD1       38.2690   15.4490   58.4170 C.ar   97  TRP97       0.0946
     58  CD2       37.8530   16.7350   56.6020 C.ar   97  TRP97       0.0152
     59  NE1       38.8250   16.6810   58.6310 N.ar   97  TRP97      -0.2442
     60  CE2       38.5740   17.4890   57.5340 C.ar   97  TRP97       0.0810
     61  CE3       37.4930   17.3420   55.3700 C.ar   97  TRP97       0.0012
     62  CZ2       38.9270   18.8470   57.3030 C.ar   97  TRP97       0.0191
     63  CZ3       37.8580   18.6510   55.1290 C.ar   97  TRP97       0.0001
     64  CH2       38.5630   19.4030   56.0930 C.ar   97  TRP97       0.0015
     65  N         34.5540   12.2460   55.6880 N.am   98  ASP98      -0.1974
     66  CA        34.1370   11.1850   54.7280 C.3    98  ASP98       0.1709
     67  C         32.6080   11.0170   54.6940 C.2    98  ASP98       0.2293
     68  O         32.0310   10.1840   53.9680 O.2    98  ASP98      -0.2864
     69  CB        34.8230    9.8710   55.0880 C.3    98  ASP98       0.1436
     70  CG        36.3430    9.9760   55.0830 C.2    98  ASP98       0.3671
     71  OD1       36.8750   10.8090   54.3180 O.co2  98  ASP98      -0.2456
     72  OD2       37.0020    9.2360   55.8660 O.co2  98  ASP98      -0.2456
     73  N         38.6710   28.6650   57.1400 N.3   125  ASN125     -0.1240
     74  CA        39.5280   27.6480   57.7480 C.3   125  ASN125      0.1653
     75  C         40.7060   27.2750   56.8220 C.2   125  ASN125      0.2266
     76  O         40.5280   27.2550   55.5900 O.2   125  ASN125     -0.2867
     77  CB        38.6920   26.4240   58.0890 C.3   125  ASN125      0.1155
     78  CG        39.3730   25.5470   59.1370 C.2   125  ASN125      0.2627
     79  OD1       40.4160   24.8940   58.8730 O.2   125  ASN125     -0.2716
     80  ND2       38.8230   25.5820   60.3610 N.am  125  ASN125     -0.0877
     81  N         41.6240   24.3690   56.3020 N.3   127  TRP127     -0.1241
     82  CA        41.0630   23.1320   55.7200 C.3   127  TRP127      0.1605
     83  C         39.6140   23.4130   55.3730 C.2   127  TRP127      0.2264
     84  O         38.9380   24.1250   56.1270 O.2   127  TRP127     -0.2867
     85  CB        41.1720   21.9820   56.7450 C.3   127  TRP127      0.0550
     86  CG        42.6410   21.7000   56.9480 C.ar  127  TRP127      0.0003
     87  CD1       43.4880   22.2720   57.8680 C.ar  127  TRP127      0.0946
     88  CD2       43.4520   20.8180   56.1430 C.ar  127  TRP127      0.0152
     89  NE1       44.7730   21.7820   57.6960 N.ar  127  TRP127     -0.2442
     90  CE2       44.7840   20.9160   56.6230 C.ar  127  TRP127      0.0810
     91  CE3       43.1840   19.9920   55.0370 C.ar  127  TRP127      0.0012
     92  CZ2       45.8380   20.1830   56.0580 C.ar  127  TRP127      0.0191
     93  CZ3       44.2370   19.2650   54.4620 C.ar  127  TRP127      0.0001
     94  CH2       45.5470   19.3360   55.0130 C.ar  127  TRP127      0.0015
     95  N         35.7130   18.0500   51.5940 N.3   130  ASN130     -0.1240
     96  CA        35.9110   17.0050   50.5710 C.3   130  ASN130      0.1653
     97  C         34.6770   16.9100   49.7090 C.2   130  ASN130      0.2266
     98  O         33.5620   17.2150   50.1630 O.2   130  ASN130     -0.2867
     99  CB        36.1380   15.6630   51.2290 C.3   130  ASN130      0.1155
    100  CG        37.4920   15.5790   51.9960 C.2   130  ASN130      0.2627
    101  OD1       38.2810   16.5120   51.9990 O.2   130  ASN130     -0.2716
    102  ND2       37.7290   14.4240   52.6780 N.am  130  ASN130     -0.0877
@<TRIPOS>BOND
     1     4     3    2
     2     1     2    1
     3     3     2    1
     4     2     5    1
     5    13    14    1
     6    39    37    1
     7    16    15    2
     8    38    37    1
     9     5     6    1
    10     8     6   ar
    11     8    10   ar
    12    19    18    2
    13    37    34    1
    14    14    15    1
    15    14    17    1
    16    15    21   am
    17    24    23    2
    18     6     7   ar
    19    97    98    2
    20    97    96    1
    21    34    33    1
    22    34    35    1
    23    10    11   ar
    24    23    33   am
    25    23    22    1
    26    25    22    1
    27    25    26    1
    28    18    17    1
    29    18    20   am
    30    96    99    1
    31    96    95    1
    32     7     9   ar
    33    21    22    1
    34    35    36    2
    35    28    26   ar
    36    28    30   ar
    37    26    27   ar
    38    11     9   ar
    39    11    12    1
    40    99   100    1
    41    30    31   ar
    42   100   101    2
    43   100   102   am
    44    27    29   ar
    45    31    29   ar
    46    31    32    1
    47    68    67    2
    48    54    53    2
    49    71    70   ar
    50    93    94   ar
    51    93    91   ar
    52    67    66    1
    53    66    69    1
    54    66    65    1
    55    94    92   ar
    56    91    88   ar
    57    70    69    1
    58    70    72   ar
    59    63    61   ar
    60    63    64   ar
    61    53    65   am
    62    53    52    1
    63    61    58   ar
    64    83    82    1
    65    83    84    2
    66    76    75    2
    67    82    81    1
    68    82    85    1
    69    92    90   ar
    70    64    62   ar
    71    88    90   ar
    72    88    86   ar
    73    52    55    1
    74    52    51    1
    75    55    56    1
    76    58    56   ar
    77    58    60   ar
    78    90    89   ar
    79    85    86    1
    80    75    74    1
    81    86    87   ar
    82    73    74    1
    83    56    57   ar
    84    62    60   ar
    85    60    59   ar
    86    89    87   ar
    87    74    77    1
    88    40    41    1
    89    77    78    1
    90    50    48    1
    91    57    59   ar
    92    79    78    2
    93    78    80   am
    94    47    46    2
    95    41    42    1
    96    44    42   am
    97    44    45    1
    98    48    49    1
    99    48    45    1
   100    46    45    1
   101    42    43    2
