@<TRIPOS>MOLECULE
tmp/2cdpD00.pdb
 107 100 0 0 0
SMALL
GASTEIGER

@<TRIPOS>ATOM
      1  N         43.0650   23.0870   10.3190 N.3    13  VAL13      -0.1231
      2  CA        42.6340   23.2860    8.9200 C.3    13  VAL13       0.1692
      3  C         41.5720   22.2210    8.6170 C.2    13  VAL13       0.2593
      4  O         41.4950   21.1960    9.3260 O.2    13  VAL13      -0.2718
      5  CB        43.7900   23.2020    7.9080 C.3    13  VAL13       0.0266
      6  CG1       44.7490   24.4050    8.1200 C.3    13  VAL13       0.0020
      7  CG2       44.5220   21.7900    7.9380 C.3    13  VAL13       0.0020
      8  N         40.7420   22.4840    7.6080 N.am   14  GLY14      -0.1942
      9  CA        39.6990   21.5270    7.2320 C.3    14  GLY14       0.2014
     10  C         39.3250   21.7660    5.7830 C.2    14  GLY14       0.2639
     11  O         39.7650   22.7490    5.1770 O.2    14  GLY14      -0.2714
     12  N         38.5070   20.8530    5.2450 N.am   15  GLY15      -0.1954
     13  CA        38.0380   20.9610    3.8850 C.3    15  GLY15       0.1869
     14  C         38.0000   19.6520    3.1140 C.2    15  GLY15       0.2309
     15  O         38.6340   18.6450    3.4680 O.2    15  GLY15      -0.2863
     16  N         35.9750   25.8080   -0.2470 N.3    36  GLY36      -0.1225
     17  CA        35.4030   25.3850    1.0630 C.3    36  GLY36       0.1811
     18  C         36.4630   24.9610    2.0920 C.2    36  GLY36       0.2280
     19  O         36.1150   24.5290    3.2170 O.2    36  GLY36      -0.2866
     20  N         39.4870   25.7550    4.7780 N.3    38  TYR38      -0.1241
     21  CA        39.5990   26.8010    5.7710 C.3    38  TYR38       0.1605
     22  C         40.7690   26.5320    6.7330 C.2    38  TYR38       0.2264
     23  O         41.2650   25.3810    6.8960 O.2    38  TYR38      -0.2867
     24  CB        38.2940   26.9500    6.5320 C.3    38  TYR38       0.0534
     25  CG        37.9920   25.7550    7.3590 C.ar   38  TYR38      -0.0201
     26  CD1       38.5790   25.5990    8.6480 C.ar   38  TYR38      -0.0009
     27  CD2       37.1670   24.7370    6.8590 C.ar   38  TYR38      -0.0009
     28  CE1       38.3390   24.4960    9.4060 C.ar   38  TYR38       0.0417
     29  CE2       36.8830   23.5980    7.6330 C.ar   38  TYR38       0.0417
     30  CZ        37.4760   23.5050    8.9140 C.ar   38  TYR38       0.1957
     31  OH        37.2400   22.3930    9.7120 O.3    38  TYR38      -0.2866
     32  N         37.2490   34.5380    2.8460 N.3    67  GLU67      -0.1245
     33  CA        36.1710   34.9700    3.7370 C.3    67  GLU67       0.1567
     34  C         36.7510   34.9080    5.1520 C.2    67  GLU67       0.2260
     35  O         37.2920   33.8890    5.5670 O.2    67  GLU67      -0.2867
     36  CB        34.9890   34.0410    3.6580 C.3    67  GLU67       0.0388
     37  CG        33.8730   34.3810    4.6810 C.3    67  GLU67       0.1160
     38  CD        32.6360   33.4940    4.5200 C.2    67  GLU67       0.3649
     39  OE1       32.7280   32.3830    3.9950 O.co2  67  GLU67      -0.2457
     40  OE2       31.5490   33.9250    4.9240 O.co2  67  GLU67      -0.2457
     41  N         35.9820   35.0280    9.0310 N.3    69  LEU69      -0.1245
     42  CA        34.9010   34.8170   10.0270 C.3    69  LEU69       0.1561
     43  C         35.4960   34.8090   11.4470 C.2    69  LEU69       0.2260
     44  O         36.6610   34.4900   11.6390 O.2    69  LEU69      -0.2867
     45  CB        34.1580   33.4960    9.8100 C.3    69  LEU69       0.0270
     46  CG        33.6860   33.1330    8.3920 C.3    69  LEU69       0.0019
     47  CD1       34.8200   32.4000    7.6210 C.3    69  LEU69       0.0001
     48  CD2       32.3400   32.3040    8.4100 C.3    69  LEU69       0.0001
     49  N         29.3190   29.7990   17.1570 N.3    75  SER75      -0.1202
     50  CA        29.0080   29.8300   15.7320 C.3    75  SER75       0.2020
     51  C         29.8570   30.8490   14.9730 C.2    75  SER75       0.2618
     52  O         30.1130   31.9620   15.4630 O.2    75  SER75      -0.2717
     53  CB        27.5280   30.1130   15.5000 C.3    75  SER75       0.2103
     54  OG        27.1770   29.6900   14.1960 O.3    75  SER75      -0.2182
     55  N         30.2670   30.4660   13.7670 N.am   76  TRP76      -0.1975
     56  CA        31.0610   31.3430   12.8910 C.3    76  TRP76       0.1640
     57  C         30.2000   32.4690   12.3670 C.2    76  TRP76       0.2290
     58  O         29.0840   32.2210   11.8550 O.2    76  TRP76      -0.2864
     59  CB        31.6670   30.5240   11.7350 C.3    76  TRP76       0.0576
     60  CG        32.7140   29.6510   12.2520 C.ar   76  TRP76       0.0006
     61  CD1       32.6300   28.2980   12.4750 C.ar   76  TRP76       0.0946
     62  CD2       33.9870   30.0570   12.7320 C.ar   76  TRP76       0.0152
     63  NE1       33.7830   27.8330   13.0220 N.ar   76  TRP76      -0.2442
     64  CE2       34.6410   28.8860   13.2200 C.ar   76  TRP76       0.0810
     65  CE3       34.6460   31.2940   12.8040 C.ar   76  TRP76       0.0012
     66  CZ2       35.9410   28.9180   13.7400 C.ar   76  TRP76       0.0191
     67  CZ3       35.9240   31.3330   13.3200 C.ar   76  TRP76       0.0001
     68  CH2       36.5600   30.1400   13.7780 C.ar   76  TRP76       0.0015
     69  N         30.3360   35.5270    9.6350 N.3    78  SER78      -0.1217
     70  CA        31.0580   36.0690    8.5020 C.3    78  SER78       0.1889
     71  C         31.2490   37.5970    8.6510 C.2    78  SER78       0.2288
     72  O         30.2690   38.3590    8.9450 O.2    78  SER78      -0.2866
     73  CB        30.3380   35.7140    7.1830 C.3    78  SER78       0.2089
     74  OG        31.0550   36.1900    6.0720 O.3    78  SER78      -0.2183
     75  N         34.5010   39.4010    2.8220 N.3    81  VAL81      -0.1245
     76  CA        34.8520   38.4790    1.7830 C.3    81  VAL81       0.1561
     77  C         35.6340   39.2880    0.7590 C.2    81  VAL81       0.2260
     78  O         35.1820   40.3950    0.3370 O.2    81  VAL81      -0.2867
     79  CB        33.6090   37.8600    1.1170 C.3    81  VAL81       0.0252
     80  CG1       34.0090   36.9180   -0.0110 C.3    81  VAL81       0.0019
     81  CG2       32.7560   37.1080    2.1490 C.3    81  VAL81       0.0019
     82  N         38.5630   32.3910   11.4110 N.3   110  ARG110     -0.1245
     83  CA        38.6700   31.4350   10.3170 C.3   110  ARG110      0.1563
     84  C         38.8260   32.1430    8.9960 C.2   110  ARG110      0.2260
     85  O         38.1170   33.1270    8.7490 O.2   110  ARG110     -0.2867
     86  CB        37.3930   30.5770   10.2600 C.3   110  ARG110      0.0307
     87  CG        37.3150   29.6330    9.0650 C.3   110  ARG110      0.0489
     88  CD        36.1430   28.7140    9.2650 C.3   110  ARG110      0.2205
     89  NE        36.4730   27.7000   10.2910 N.pl3 110  ARG110     -0.0865
     90  CZ        35.6740   26.6760   10.6270 C.cat 110  ARG110      0.5346
     91  NH1       34.5030   26.5060    9.9860 N.pl3 110  ARG110      0.1354
     92  NH2       36.0560   25.7950   11.5590 N.pl3 110  ARG110      0.1354
     93  N         38.4760   31.2810    5.0220 N.3   112  HIS112     -0.1241
     94  CA        37.7360   30.2420    4.3040 C.3   112  HIS112      0.1621
     95  C         37.8160   30.5710    2.7990 C.2   112  HIS112      0.2264
     96  O         37.6310   31.7410    2.4380 O.2   112  HIS112     -0.2867
     97  CB        36.2940   30.2830    4.8150 C.3   112  HIS112      0.0745
     98  CG        35.2700   29.5630    3.9780 C.ar  112  HIS112      0.0817
     99  ND1       35.3180   28.2010    3.6770 N.ar  112  HIS112     -0.2268
    100  CD2       34.1020   30.0160    3.4720 C.ar  112  HIS112      0.1154
    101  CE1       34.2370   27.8780    2.9710 C.ar  112  HIS112      0.1986
    102  NE2       33.4830   28.9530    2.8470 N.ar  112  HIS112     -0.2212
    103  N         36.1990   31.0510   -0.1250 N.3   114  ALA114     -0.1245
    104  CA        34.7670   31.3130   -0.3560 C.3   114  ALA114      0.1562
    105  C         34.3820   31.4960   -1.8390 C.2   114  ALA114      0.2260
    106  O         33.1830   31.6370   -2.1750 O.2   114  ALA114     -0.2867
    107  CB        34.3660   32.5610    0.4250 C.3   114  ALA114      0.0290
@<TRIPOS>BOND
     1   106   105    2
     2   105   104    1
     3   104   103    1
     4   104   107    1
     5    16    17    1
     6    80    79    1
     7    78    77    2
     8    77    76    1
     9    17    18    1
    10    79    76    1
    11    79    81    1
    12    76    75    1
    13    18    19    2
    14    96    95    2
    15    95    94    1
    16    32    33    1
    17   102   101   ar
    18   102   100   ar
    19   101    99   ar
    20    14    15    2
    21    14    13    1
    22   100    98   ar
    23    36    33    1
    24    36    37    1
    25    99    98   ar
    26    33    34    1
    27    13    12    1
    28    98    97    1
    29    39    38   ar
    30    94    97    1
    31    94    93    1
    32    38    37    1
    33    38    40   ar
    34    20    21    1
    35    34    35    2
    36    11    10    2
    37    12    10   am
    38    21    24    1
    39    21    22    1
    40    10     9    1
    41    74    73    1
    42    24    25    1
    43    22    23    2
    44    27    25   ar
    45    27    29   ar
    46    73    70    1
    47     9     8    1
    48    25    26   ar
    49     8     3   am
    50    47    46    1
    51    29    30   ar
    52     5     7    1
    53     5     6    1
    54     5     2    1
    55    46    48    1
    56    46    45    1
    57    70    71    1
    58    70    69    1
    59     3     2    1
    60     3     4    2
    61    26    28   ar
    62    71    72    2
    63    85    84    2
    64    30    28   ar
    65    30    31    1
    66     2     1    1
    67    84    83    1
    68    41    42    1
    69    87    88    1
    70    87    86    1
    71    88    89    1
    72    45    42    1
    73    91    90    1
    74    42    43    1
    75    86    83    1
    76    89    90    2
    77    83    82    1
    78    90    92    1
    79    43    44    2
    80    59    60    1
    81    59    56    1
    82    58    57    2
    83    60    61   ar
    84    60    62   ar
    85    57    56    1
    86    61    63   ar
    87    62    65   ar
    88    62    64   ar
    89    65    67   ar
    90    56    55    1
    91    63    64   ar
    92    64    66   ar
    93    67    68   ar
    94    66    68   ar
    95    55    51   am
    96    54    53    1
    97    51    52    2
    98    51    50    1
    99    53    50    1
   100    50    49    1
