@<TRIPOS>MOLECULE
tmp/2cdqB04.pdb
 114 111 0 0 0
SMALL
GASTEIGER

@<TRIPOS>ATOM
      1  N         64.1600   47.3570  135.0840 N.3   343  GLU343     -0.1231
      2  CA        62.7780   47.5740  135.5170 C.3   343  GLU343      0.1699
      3  C         62.4680   46.8060  136.7920 C.2   343  GLU343      0.2592
      4  O         61.6540   47.2450  137.5950 O.2   343  GLU343     -0.2718
      5  CB        61.7730   47.1670  134.4250 C.3   343  GLU343      0.0402
      6  CG        61.7030   48.0970  133.2110 C.3   343  GLU343      0.1161
      7  CD        61.7440   49.5720  133.5880 C.2   343  GLU343      0.3649
      8  OE1       60.8050   50.0540  134.2650 O.co2 343  GLU343     -0.2457
      9  OE2       62.7260   50.2490  133.2060 O.co2 343  GLU343     -0.2457
     10  N         63.1210   45.6610  136.9690 N.am  344  LEU344     -0.1966
     11  CA        62.8520   44.7890  138.1090 C.3   344  LEU344      0.1728
     12  C         63.9080   44.8900  139.2190 C.2   344  LEU344      0.2617
     13  O         63.9280   44.0720  140.1480 O.2   344  LEU344     -0.2715
     14  CB        62.6620   43.3420  137.6350 C.3   344  LEU344      0.0311
     15  CG        61.2280   42.8730  137.3360 C.3   344  LEU344      0.0022
     16  CD1       60.4560   43.7800  136.3520 C.3   344  LEU344      0.0001
     17  CD2       61.2730   41.4480  136.8220 C.3   344  LEU344      0.0001
     18  N         64.7660   45.9090  139.1150 N.am  345  GLY345     -0.1940
     19  CA        65.7730   46.2270  140.1340 C.3   345  GLY345      0.2014
     20  C         66.7970   45.1400  140.4210 C.2   345  GLY345      0.2639
     21  O         67.2170   44.9640  141.5700 O.2   345  GLY345     -0.2714
     22  N         67.2030   44.4180  139.3760 N.am  346  ILE346     -0.1963
     23  CA        68.1470   43.3070  139.5100 C.3   346  ILE346      0.1727
     24  C         69.4630   43.6360  138.8100 C.2   346  ILE346      0.2616
     25  O         69.4730   44.0510  137.6430 O.2   346  ILE346     -0.2715
     26  CB        67.5580   41.9750  138.9550 C.3   346  ILE346      0.0290
     27  CG1       66.2710   41.6000  139.6970 C.3   346  ILE346      0.0022
     28  CG2       68.5660   40.8380  139.0700 C.3   346  ILE346      0.0023
     29  CD1       65.6170   40.3010  139.2160 C.3   346  ILE346      0.0001
     30  N         70.5660   43.4630  139.5360 N.am  347  SER347     -0.1950
     31  CA        71.9020   43.6190  138.9710 C.3   347  SER347      0.1924
     32  C         72.4640   42.2710  138.5130 C.2   347  SER347      0.2314
     33  O         72.4570   41.2880  139.2620 O.2   347  SER347     -0.2863
     34  CB        72.8460   44.2890  139.9710 C.3   347  SER347      0.2116
     35  OG        74.1740   44.3390  139.4720 O.3   347  SER347     -0.2180
     36  N         73.2760   36.3830  137.9540 N.3   362  LEU362     -0.1231
     37  CA        72.8560   37.5200  138.7790 C.3   362  LEU362      0.1693
     38  C         73.8830   37.7360  139.8820 C.2   362  LEU362      0.2592
     39  O         74.4870   36.7760  140.3570 O.2   362  LEU362     -0.2718
     40  CB        71.4720   37.2700  139.3820 C.3   362  LEU362      0.0284
     41  CG        70.4300   36.7000  138.4190 C.3   362  LEU362      0.0019
     42  CD1       69.2550   36.1050  139.1740 C.3   362  LEU362      0.0001
     43  CD2       69.9760   37.7700  137.4510 C.3   362  LEU362      0.0001
     44  N         74.0900   38.9910  140.2810 N.am  363  ASP363     -0.1974
     45  CA        75.0060   39.3090  141.3820 C.3   363  ASP363      0.1709
     46  C         74.8790   38.2720  142.4960 C.2   363  ASP363      0.2293
     47  O         73.7670   37.8620  142.8250 O.2   363  ASP363     -0.2864
     48  CB        74.6940   40.6900  141.9620 C.3   363  ASP363      0.1436
     49  CG        75.3260   41.8240  141.1780 C.2   363  ASP363      0.3671
     50  OD1       75.9720   41.5730  140.1410 O.co2 363  ASP363     -0.2456
     51  OD2       75.1730   42.9850  141.6140 O.co2 363  ASP363     -0.2456
     52  N         74.3210   36.7810  146.0330 N.3   365  SER365     -0.1217
     53  CA        73.4170   37.3010  147.0690 C.3   365  SER365      0.1889
     54  C         74.1300   38.0250  148.2140 C.2   365  SER365      0.2288
     55  O         73.5870   38.9790  148.7740 O.2   365  SER365     -0.2866
     56  CB        72.5370   36.1870  147.6280 C.3   365  SER365      0.2089
     57  OG        73.3290   35.2020  148.2630 O.3   365  SER365     -0.2183
     58  N         74.3260   41.6760  148.3700 N.3   368  TRP368     -0.1227
     59  CA        73.0850   42.3790  148.6750 C.3   368  TRP368      0.1737
     60  C         72.5770   42.0240  150.0760 C.2   368  TRP368      0.2596
     61  O         73.3130   41.4470  150.8790 O.2   368  TRP368     -0.2718
     62  CB        72.0390   42.0720  147.6020 C.3   368  TRP368      0.0564
     63  CG        72.4130   42.6260  146.2570 C.ar  368  TRP368      0.0003
     64  CD1       73.0570   41.9680  145.2460 C.ar  368  TRP368      0.0946
     65  CD2       72.1820   43.9600  145.7840 C.ar  368  TRP368      0.0152
     66  NE1       73.2360   42.8070  144.1700 N.ar  368  TRP368     -0.2442
     67  CE2       72.7070   44.0350  144.4720 C.ar  368  TRP368      0.0810
     68  CE3       71.5800   45.0980  146.3390 C.ar  368  TRP368      0.0012
     69  CZ2       72.6480   45.2060  143.7040 C.ar  368  TRP368      0.0191
     70  CZ3       71.5200   46.2630  145.5740 C.ar  368  TRP368      0.0001
     71  CH2       72.0540   46.3050  144.2690 C.ar  368  TRP368      0.0015
     72  N         71.3290   42.3720  150.3720 N.am  369  SER369     -0.1938
     73  CA        70.8020   42.2130  151.7260 C.3   369  SER369      0.2055
     74  C         70.0320   40.9090  151.9300 C.2   369  SER369      0.2643
     75  O         69.8100   40.4750  153.0600 O.2   369  SER369     -0.2714
     76  CB        69.9130   43.4050  152.0790 C.3   369  SER369      0.2130
     77  OG        68.8300   43.5070  151.1730 O.3   369  SER369     -0.2179
     78  N         69.6510   40.2810  150.8270 N.am  370  ARG370     -0.1963
     79  CA        68.7000   39.1860  150.8410 C.3   370  ARG370      0.1729
     80  C         68.9090   38.3820  149.5610 C.2   370  ARG370      0.2616
     81  O         69.4070   38.9150  148.5700 O.2   370  ARG370     -0.2715
     82  CB        67.2920   39.7860  150.8440 C.3   370  ARG370      0.0348
     83  CG        66.1660   38.8410  151.2140 C.3   370  ARG370      0.0492
     84  CD        65.0080   38.9710  150.2290 C.3   370  ARG370      0.2205
     85  NE        64.4850   40.3320  150.1070 N.pl3 370  ARG370     -0.0865
     86  CZ        64.0100   40.8600  148.9790 C.cat 370  ARG370      0.5346
     87  NH1       64.0060   40.1610  147.8440 N.pl3 370  ARG370      0.1354
     88  NH2       63.5480   42.1040  148.9820 N.pl3 370  ARG370      0.1354
     89  N         68.5450   37.1050  149.5760 N.am  371  GLU371     -0.1963
     90  CA        68.4420   36.3430  148.3350 C.3   371  GLU371      0.1733
     91  C         67.1440   36.7450  147.6470 C.2   371  GLU371      0.2616
     92  O         66.1930   37.1570  148.3150 O.2   371  GLU371     -0.2715
     93  CB        68.4090   34.8450  148.6170 C.3   371  GLU371      0.0429
     94  CG        69.7170   34.2440  149.0970 C.3   371  GLU371      0.1163
     95  CD        69.5970   32.7500  149.3580 C.2   371  GLU371      0.3649
     96  OE1       69.3880   31.9850  148.3900 O.co2 371  GLU371     -0.2457
     97  OE2       69.7110   32.3390  150.5340 O.co2 371  GLU371     -0.2457
     98  N         67.0950   36.6370  146.3210 N.am  372  LEU372     -0.1977
     99  CA        65.8470   36.8750  145.5960 C.3   372  LEU372      0.1596
    100  C         64.8850   35.7110  145.8400 C.2   372  LEU372      0.2287
    101  O         65.3070   34.5490  145.8250 O.2   372  LEU372     -0.2864
    102  CB        66.1090   37.0460  144.1020 C.3   372  LEU372      0.0297
    103  CG        67.0320   38.1800  143.6400 C.3   372  LEU372      0.0022
    104  CD1       67.4470   37.9700  142.1800 C.3   372  LEU372      0.0001
    105  CD2       66.3840   39.5470  143.8290 C.3   372  LEU372      0.0001
    106  N         60.1330   36.9310  142.5900 N.3   376  GLU376     -0.1245
    107  CA        60.9750   37.8270  141.7950 C.3   376  GLU376      0.1567
    108  C         61.6640   37.1140  140.6320 C.2   376  GLU376      0.2260
    109  O         61.8550   37.7050  139.5710 O.2   376  GLU376     -0.2867
    110  CB        62.0010   38.5310  142.6860 C.3   376  GLU376      0.0388
    111  CG        61.3810   39.5070  143.6800 C.3   376  GLU376      0.1160
    112  CD        62.3750   40.0510  144.6920 C.2   376  GLU376      0.3649
    113  OE1       62.2690   41.2550  145.0260 O.co2 376  GLU376     -0.2457
    114  OE2       63.2530   39.2860  145.1610 O.co2 376  GLU376     -0.2457
@<TRIPOS>BOND
     1     9     7   ar
     2     6     7    1
     3     6     5    1
     4     7     8   ar
     5     5     2    1
     6     1     2    1
     7     2     3    1
     8    16    15    1
     9     3    10   am
    10     3     4    2
    11    17    15    1
    12    10    11    1
    13    15    14    1
    14    43    41    1
    15    14    11    1
    16    25    24    2
    17    36    37    1
    18    11    12    1
    19    41    42    1
    20    41    40    1
    21    32    31    1
    22    32    33    2
    23    37    40    1
    24    37    38    1
    25    24    23    1
    26    24    30   am
    27    26    28    1
    28    26    23    1
    29    26    27    1
    30    31    30    1
    31    31    34    1
    32    18    12   am
    33    18    19    1
    34    29    27    1
    35    12    13    2
    36    22    23    1
    37    22    20   am
    38    35    34    1
    39   109   108    2
    40    38    44   am
    41    38    39    2
    42    19    20    1
    43    50    49   ar
    44    44    45    1
    45    20    21    2
    46   108   107    1
    47    49    51   ar
    48    49    48    1
    49    45    48    1
    50    45    46    1
    51   107   106    1
    52   107   110    1
    53   104   103    1
    54    46    47    2
    55   110   111    1
    56   103   105    1
    57   103   102    1
    58   111   112    1
    59    69    71   ar
    60    69    67   ar
    61   102    99    1
    62    66    67   ar
    63    66    64   ar
    64    71    70   ar
    65    67    65   ar
    66   112   113   ar
    67   112   114   ar
    68    64    63   ar
    69    70    68   ar
    70    99   100    1
    71    99    98    1
    72    65    63   ar
    73    65    68   ar
    74   101   100    2
    75    52    53    1
    76    63    62    1
    77    98    91   am
    78    53    56    1
    79    53    54    1
    80    62    59    1
    81    56    57    1
    82    91    92    2
    83    91    90    1
    84    87    86    1
    85    54    55    2
    86    90    93    1
    87    90    89    1
    88    58    59    1
    89    96    95   ar
    90    81    80    2
    91    93    94    1
    92    59    60    1
    93    86    88    1
    94    86    85    2
    95    94    95    1
    96    95    97   ar
    97    80    89   am
    98    80    79    1
    99    60    72   am
   100    60    61    2
   101    85    84    1
   102    84    83    1
   103    72    73    1
   104    78    79    1
   105    78    74   am
   106    79    82    1
   107    82    83    1
   108    77    76    1
   109    73    74    1
   110    73    76    1
   111    74    75    2
