@<TRIPOS>MOLECULE
tmp/2cdqB02.pdb
 86 78 0 0 0
SMALL
GASTEIGER

@<TRIPOS>ATOM
      1  N         93.1470   51.7750  158.1670 N.3     8  LYS8       -0.1245
      2  CA        91.7390   51.4200  158.1480 C.3     8  LYS8        0.1561
      3  C         91.5230   50.0540  158.7890 C.2     8  LYS8        0.2260
      4  O         92.2470   49.0960  158.4960 O.2     8  LYS8       -0.2867
      5  CB        91.1990   51.4440  156.7170 C.3     8  LYS8        0.0271
      6  CG        89.7320   51.0770  156.5920 C.3     8  LYS8        0.0035
      7  CD        89.5740   49.5830  156.4150 C.3     8  LYS8        0.0206
      8  CE        88.1250   49.1670  156.3640 C.3     8  LYS8        0.1093
      9  NZ        88.0160   47.8860  155.6160 N.3     8  LYS8       -0.1314
     10  N         85.1260   45.8900  160.7690 N.3    11  GLY11      -0.1225
     11  CA        84.2930   45.5310  161.9100 C.3    11  GLY11       0.1811
     12  C         84.9170   44.5580  162.8940 C.2    11  GLY11       0.2280
     13  O         84.9500   44.8230  164.0980 O.2    11  GLY11      -0.2866
     14  N         85.4740   51.1780  161.2420 N.3    40  SER40      -0.1202
     15  CA        84.1120   50.7420  160.9570 C.3    40  SER40       0.2020
     16  C         83.3260   50.6530  162.2620 C.2    40  SER40       0.2618
     17  O         83.8580   50.9550  163.3300 O.2    40  SER40      -0.2717
     18  CB        84.1450   49.3790  160.2780 C.3    40  SER40       0.2103
     19  OG        84.8600   49.4520  159.0600 O.3    40  SER40      -0.2182
     20  N         82.0610   50.2510  162.1730 N.am   41  ALA41      -0.1979
     21  CA        81.2650   49.9450  163.3560 C.3    41  ALA41       0.1597
     22  C         81.8180   48.6910  164.0430 C.2    41  ALA41       0.2287
     23  O         82.5810   47.9310  163.4430 O.2    41  ALA41      -0.2864
     24  CB        79.8170   49.7450  162.9730 C.3    41  ALA41       0.0319
     25  N         79.6020   43.6580  163.1260 N.3    44  LYS44      -0.1245
     26  CA        78.1960   43.2530  162.9810 C.3    44  LYS44       0.1561
     27  C         77.1310   44.2490  163.4970 C.2    44  LYS44       0.2260
     28  O         75.9360   44.0090  163.3060 O.2    44  LYS44      -0.2867
     29  CB        77.9480   41.8470  163.5520 C.3    44  LYS44       0.0271
     30  CG        78.3340   40.7200  162.6300 C.3    44  LYS44       0.0035
     31  CD        77.7950   39.3950  163.1620 C.3    44  LYS44       0.0206
     32  CE        78.3650   38.1940  162.4040 C.3    44  LYS44       0.1093
     33  NZ        78.0610   38.2340  160.9370 N.3    44  LYS44      -0.1314
     34  N         76.6030   47.2770  162.3370 N.3    46  THR46      -0.1218
     35  CA        76.0090   47.9210  161.1650 C.3    46  THR46       0.1862
     36  C         74.8660   47.0830  160.6140 C.2    46  THR46       0.2287
     37  O         73.7790   47.5970  160.3570 O.2    46  THR46      -0.2866
     38  CB        77.0410   48.2180  160.0680 C.3    46  THR46       0.1770
     39  OG1       77.7400   49.4260  160.3950 O.3    46  THR46      -0.2211
     40  CG2       76.3620   48.3960  158.7170 C.3    46  THR46       0.0375
     41  N         79.4130   53.5370  163.3890 N.3   124  GLU124     -0.1245
     42  CA        80.7860   54.0550  163.4290 C.3   124  GLU124      0.1567
     43  C         80.9450   55.2750  164.3420 C.2   124  GLU124      0.2260
     44  O         82.0500   55.5570  164.8190 O.2   124  GLU124     -0.2867
     45  CB        81.3680   54.3050  162.0260 C.3   124  GLU124      0.0388
     46  CG        80.3490   54.4620  160.9140 C.3   124  GLU124      0.1160
     47  CD        79.7700   53.1380  160.4590 C.2   124  GLU124      0.3649
     48  OE1       80.5230   52.3100  159.9060 O.co2 124  GLU124     -0.2457
     49  OE2       78.5580   52.9240  160.6580 O.co2 124  GLU124     -0.2457
     50  N         82.1160   54.6360  156.6880 N.3   191  PHE191     -0.1241
     51  CA        81.4940   54.9980  155.4230 C.3   191  PHE191      0.1605
     52  C         80.4360   56.1050  155.5310 C.2   191  PHE191      0.2264
     53  O         79.2490   55.8870  155.2880 O.2   191  PHE191     -0.2867
     54  CB        81.0810   53.7560  154.6000 C.3   191  PHE191      0.0534
     55  CG        79.8420   53.0300  155.0740 C.ar  191  PHE191     -0.0203
     56  CD1       78.9830   52.4590  154.1310 C.ar  191  PHE191     -0.0042
     57  CD2       79.5470   52.8770  156.4210 C.ar  191  PHE191     -0.0042
     58  CE1       77.8480   51.7660  154.5160 C.ar  191  PHE191     -0.0003
     59  CE2       78.3940   52.1930  156.8170 C.ar  191  PHE191     -0.0003
     60  CZ        77.5470   51.6340  155.8560 C.ar  191  PHE191     -0.0000
     61  N         78.2600   54.0960  150.2800 N.3   205  GLY205     -0.1225
     62  CA        77.9410   52.9640  149.4130 C.3   205  GLY205      0.1811
     63  C         78.9390   51.8280  149.5410 C.2   205  GLY205      0.2280
     64  O         79.5500   51.6360  150.5970 O.2   205  GLY205     -0.2866
     65  N         82.3120   49.5810  149.2000 N.3   207  GLY207     -0.1210
     66  CA        83.6610   49.9860  149.5850 C.3   207  GLY207      0.1956
     67  C         83.6340   51.2330  150.4510 C.2   207  GLY207      0.2612
     68  O         84.2290   52.2470  150.1100 O.2   207  GLY207     -0.2717
     69  N         82.9160   51.1440  151.5670 N.am  208  GLY208     -0.1942
     70  CA        82.7240   52.2600  152.4680 C.3   208  GLY208      0.2014
     71  C         83.9920   52.7390  153.1380 C.2   208  GLY208      0.2640
     72  O         84.6730   53.6220  152.6160 O.2   208  GLY208     -0.2714
     73  N         84.3050   52.1540  154.2950 N.am  209  SER209     -0.1935
     74  CA        85.4530   52.5710  155.1070 C.3   209  SER209      0.2055
     75  C         86.7650   52.5960  154.3190 C.2   209  SER209      0.2643
     76  O         87.6170   53.4600  154.5530 O.2   209  SER209     -0.2714
     77  CB        85.5920   51.6890  156.3490 C.3   209  SER209      0.2130
     78  OG        84.3970   51.6810  157.1130 O.3   209  SER209     -0.2179
     79  N         86.9220   51.6600  153.3830 N.am  210  ASP210     -0.1971
     80  CA        88.0800   51.6530  152.4870 C.3   210  ASP210      0.1709
     81  C         88.1770   52.9880  151.7300 C.2   210  ASP210      0.2293
     82  O         89.2500   53.6000  151.6650 O.2   210  ASP210     -0.2864
     83  CB        88.0150   50.4690  151.5030 C.3   210  ASP210      0.1436
     84  CG        88.1700   49.0980  152.1880 C.2   210  ASP210      0.3671
     85  OD1       88.6930   49.0160  153.3190 O.co2 210  ASP210     -0.2456
     86  OD2       87.7690   48.0860  151.5760 O.co2 210  ASP210     -0.2456
@<TRIPOS>BOND
     1    65    66    1
     2    62    63    1
     3    62    61    1
     4    63    64    2
     5    66    67    1
     6    68    67    2
     7    67    69   am
     8    83    84    1
     9    83    80    1
    10    69    70    1
    11    86    84   ar
    12    82    81    2
    13    81    80    1
    14    84    85   ar
    15    70    71    1
    16    80    79    1
    17    72    71    2
    18    71    73   am
    19    79    75   am
    20    56    58   ar
    21    56    55   ar
    22    73    74    1
    23    75    76    2
    24    75    74    1
    25    58    60   ar
    26    54    55    1
    27    54    51    1
    28    55    57   ar
    29    74    77    1
    30    53    52    2
    31    51    52    1
    32    51    50    1
    33     9     8    1
    34    60    59   ar
    35    77    78    1
    36     8     7    1
    37     7     6    1
    38    57    59   ar
    39     6     5    1
    40     5     2    1
    41     2     1    1
    42     2     3    1
    43     4     3    2
    44    40    38    1
    45    19    18    1
    46    48    47   ar
    47    38    39    1
    48    38    35    1
    49    18    15    1
    50    37    36    2
    51    47    49   ar
    52    47    46    1
    53    36    35    1
    54    10    11    1
    55    46    45    1
    56    33    32    1
    57    15    14    1
    58    15    16    1
    59    35    34    1
    60    11    12    1
    61    45    42    1
    62    20    16   am
    63    20    21    1
    64    16    17    2
    65    32    31    1
    66    30    31    1
    67    30    29    1
    68    12    13    2
    69    24    21    1
    70    26    25    1
    71    26    27    1
    72    26    29    1
    73    28    27    2
    74    21    22    1
    75    41    42    1
    76    42    43    1
    77    23    22    2
    78    43    44    2
