@<TRIPOS>MOLECULE
tmp/2cdqB00.pdb
 86 85 0 0 0
SMALL
GASTEIGER

@<TRIPOS>ATOM
      1  N         67.5240   37.2590  117.4140 N.3   327  MET327     -0.1230
      2  CA        68.7180   37.9790  117.8740 C.3   327  MET327      0.1702
      3  C         69.7400   38.2590  116.7850 C.2   327  MET327      0.2592
      4  O         70.2650   39.3730  116.6940 O.2   327  MET327     -0.2718
      5  CB        69.4220   37.1710  118.9550 C.3   327  MET327      0.0401
      6  CG        69.1530   37.6180  120.3600 C.3   327  MET327      0.0596
      7  SD        69.8530   36.4370  121.5110 S.3   327  MET327     -0.1393
      8  CE        71.4770   36.2420  120.8010 C.3   327  MET327      0.0692
      9  N         70.0330   37.2320  115.9860 N.am  328  LEU328     -0.1966
     10  CA        71.1190   37.2790  115.0170 C.3   328  LEU328      0.1728
     11  C         70.8110   38.3200  113.9520 C.2   328  LEU328      0.2617
     12  O         69.9050   38.1350  113.1310 O.2   328  LEU328     -0.2715
     13  CB        71.3500   35.8960  114.3910 C.3   328  LEU328      0.0311
     14  CG        72.7410   35.5560  113.8420 C.3   328  LEU328      0.0022
     15  CD1       72.8190   34.0880  113.4760 C.3   328  LEU328      0.0001
     16  CD2       73.1090   36.4080  112.6420 C.3   328  LEU328      0.0001
     17  N         71.5600   39.4210  113.9960 N.am  329  GLY329     -0.1940
     18  CA        71.3740   40.5350  113.0700 C.3   329  GLY329      0.2014
     19  C         70.3020   41.5590  113.4210 C.2   329  GLY329      0.2639
     20  O         69.9870   42.4170  112.5990 O.2   329  GLY329     -0.2714
     21  N         69.7410   41.4790  114.6290 N.am  330  GLN330     -0.1963
     22  CA        68.7270   42.4400  115.0830 C.3   330  GLN330      0.1733
     23  C         69.3210   43.4890  116.0290 C.2   330  GLN330      0.2616
     24  O         70.1390   43.1650  116.8870 O.2   330  GLN330     -0.2715
     25  CB        67.5810   41.7110  115.7870 C.3   330  GLN330      0.0408
     26  CG        66.3460   42.6000  116.0900 C.3   330  GLN330      0.0908
     27  CD        65.5030   42.0260  117.2370 C.2   330  GLN330      0.2608
     28  OE1       65.1590   42.7380  118.1930 O.2   330  GLN330     -0.2717
     29  NE2       65.1670   40.7300  117.1550 N.am  330  GLN330     -0.0878
     30  N         68.9040   44.7440  115.8700 N.am  331  VAL331     -0.1963
     31  CA        69.3290   45.8310  116.7580 C.3   331  VAL331      0.1727
     32  C         68.3530   45.9150  117.9310 C.2   331  VAL331      0.2617
     33  O         67.1410   45.8630  117.7310 O.2   331  VAL331     -0.2715
     34  CB        69.3600   47.1960  115.9960 C.3   331  VAL331      0.0290
     35  CG1       69.8060   48.3330  116.9110 C.3   331  VAL331      0.0023
     36  CG2       70.2740   47.1220  114.7770 C.3   331  VAL331      0.0023
     37  N         68.8730   46.0120  119.1540 N.am  332  GLY332     -0.1940
     38  CA        68.0220   46.3400  120.3190 C.3   332  GLY332      0.2014
     39  C         67.5040   45.2040  121.1870 C.2   332  GLY332      0.2639
     40  O         66.7390   45.4450  122.1270 O.2   332  GLY332     -0.2714
     41  N         67.9060   43.9700  120.8810 N.am  333  PHE333     -0.1959
     42  CA        67.5530   42.8130  121.7130 C.3   333  PHE333      0.1771
     43  C         68.2810   42.8670  123.0530 C.2   333  PHE333      0.2619
     44  O         67.6640   42.6910  124.1070 O.2   333  PHE333     -0.2715
     45  CB        67.8520   41.4910  121.0000 C.3   333  PHE333      0.0574
     46  CG        66.9860   40.3610  121.4540 C.ar  333  PHE333     -0.0200
     47  CD1       65.8570   40.0020  120.7250 C.ar  333  PHE333     -0.0042
     48  CD2       67.2820   39.6640  122.6220 C.ar  333  PHE333     -0.0042
     49  CE1       65.0410   38.9610  121.1460 C.ar  333  PHE333     -0.0003
     50  CE2       66.4720   38.6250  123.0530 C.ar  333  PHE333     -0.0003
     51  CZ        65.3490   38.2730  122.3150 C.ar  333  PHE333     -0.0000
     52  N         69.5890   43.1200  123.0090 N.am  334  LEU334     -0.1963
     53  CA        70.3740   43.3200  124.2210 C.3   334  LEU334      0.1728
     54  C         69.8390   44.4800  125.0570 C.2   334  LEU334      0.2616
     55  O         69.7890   44.3870  126.2900 O.2   334  LEU334     -0.2715
     56  CB        71.8480   43.5210  123.8810 C.3   334  LEU334      0.0311
     57  CG        72.8240   42.3530  124.1050 C.3   334  LEU334      0.0022
     58  CD1       72.1450   40.9940  124.3200 C.3   334  LEU334      0.0001
     59  CD2       73.8230   42.2800  122.9600 C.3   334  LEU334      0.0001
     60  N         69.4220   45.5550  124.3830 N.am  335  ALA335     -0.1977
     61  CA        68.8030   46.7090  125.0470 C.3   335  ALA335      0.1597
     62  C         67.5010   46.3340  125.7600 C.2   335  ALA335      0.2287
     63  O         67.2830   46.7200  126.9080 O.2   335  ALA335     -0.2864
     64  CB        68.5710   47.8310  124.0550 C.3   335  ALA335      0.0319
     65  N         77.5820   35.1390  125.3340 N.3   353  THR353     -0.1203
     66  CA        76.6450   35.0630  124.2140 C.3   353  THR353      0.1994
     67  C         76.9020   33.8810  123.3030 C.2   353  THR353      0.2619
     68  O         77.9660   33.2670  123.3540 O.2   353  THR353     -0.2717
     69  CB        76.7090   36.3290  123.3410 C.3   353  THR353      0.1784
     70  OG1       78.0780   36.6410  123.0450 O.3   353  THR353     -0.2211
     71  CG2       76.0320   37.5180  124.0350 C.3   353  THR353      0.0376
     72  N         75.9090   33.5640  122.4760 N.am  354  SER354     -0.1937
     73  CA        76.0980   32.7200  121.2930 C.3   354  SER354      0.2055
     74  C         75.3920   33.4050  120.1130 C.2   354  SER354      0.2642
     75  O         74.8860   34.5330  120.2530 O.2   354  SER354     -0.2714
     76  CB        75.5590   31.3060  121.5200 C.3   354  SER354      0.2130
     77  OG        74.2160   31.1830  121.0840 O.3   354  SER354     -0.2179
     78  N         75.3490   32.7370  118.9610 N.am  355  GLU355     -0.1976
     79  CA        74.7300   33.3270  117.7680 C.3   355  GLU355      0.1602
     80  C         73.2440   33.6180  117.9740 C.2   355  GLU355      0.2287
     81  O         72.7030   34.5490  117.3750 O.2   355  GLU355     -0.2864
     82  CB        74.9330   32.4470  116.5250 C.3   355  GLU355      0.0415
     83  CG        76.3770   32.0190  116.2450 C.3   355  GLU355      0.1163
     84  CD        77.3300   33.1800  115.9670 C.2   355  GLU355      0.3649
     85  OE1       76.8690   34.2390  115.4890 O.co2 355  GLU355     -0.2457
     86  OE2       78.5490   33.0230  116.2200 O.co2 355  GLU355     -0.2457
@<TRIPOS>BOND
     1    20    19    2
     2    16    14    1
     3    18    19    1
     4    18    17    1
     5    12    11    2
     6    19    21   am
     7    15    14    1
     8    14    13    1
     9    11    17   am
    10    11    10    1
    11    13    10    1
    12    21    22    1
    13    36    34    1
    14    10     9    1
    15    22    25    1
    16    22    23    1
    17    85    84   ar
    18    25    26    1
    19    30    23   am
    20    30    31    1
    21    84    86   ar
    22    84    83    1
    23     9     3   am
    24    34    31    1
    25    34    35    1
    26    23    24    2
    27    26    27    1
    28    83    82    1
    29    82    79    1
    30     4     3    2
    31    31    32    1
    32     3     2    1
    33    29    27   am
    34    27    28    2
    35    81    80    2
    36     1     2    1
    37    33    32    2
    38    79    80    1
    39    79    78    1
    40     2     5    1
    41    32    37   am
    42     5     6    1
    43    78    74   am
    44    37    38    1
    45    74    75    2
    46    74    73    1
    47    38    39    1
    48     6     7    1
    49    47    49   ar
    50    47    46   ar
    51     8     7    1
    52    41    39   am
    53    41    42    1
    54    45    46    1
    55    45    42    1
    56    77    76    1
    57    49    51   ar
    58    39    40    2
    59    73    76    1
    60    73    72    1
    61    46    48   ar
    62    42    43    1
    63    51    50   ar
    64    72    67   am
    65    48    50   ar
    66    59    57    1
    67    52    43   am
    68    52    53    1
    69    70    69    1
    70    43    44    2
    71    67    68    2
    72    67    66    1
    73    69    71    1
    74    69    66    1
    75    56    57    1
    76    56    53    1
    77    64    61    1
    78    57    58    1
    79    66    65    1
    80    53    54    1
    81    60    61    1
    82    60    54   am
    83    61    62    1
    84    54    55    2
    85    62    63    2
