@<TRIPOS>MOLECULE
tmp/2cdrA00.pdb
 137 133 0 0 0
SMALL
GASTEIGER

@<TRIPOS>ATOM
      1  N         25.4200   44.8190   26.3670 N.3    31  THR31      -0.1203
      2  CA        26.2410   44.3650   27.4860 C.3    31  THR31       0.1994
      3  C         27.7290   44.3940   27.1500 C.2    31  THR31       0.2618
      4  O         28.5760   44.5030   28.0400 O.2    31  THR31      -0.2717
      5  CB        25.8870   42.9250   27.8890 C.3    31  THR31       0.1784
      6  OG1       26.2530   42.0390   26.8240 O.3    31  THR31      -0.2211
      7  CG2       24.3960   42.7950   28.1720 C.3    31  THR31       0.0376
      8  N         28.0440   44.2900   25.8650 N.am   32  GLY32      -0.1942
      9  CA        29.4350   44.2860   25.4550 C.3    32  GLY32       0.2014
     10  C         30.0540   42.9210   25.6920 C.2    32  GLY32       0.2639
     11  O         31.2680   42.7510   25.5720 O.2    32  GLY32      -0.2714
     12  N         29.2160   41.9450   26.0360 N.am   33  MET33      -0.1963
     13  CA        29.6780   40.5830   26.2880 C.3    33  MET33       0.1736
     14  C         29.8530   39.8420   24.9660 C.2    33  MET33       0.2617
     15  O         29.0410   39.9880   24.0540 O.2    33  MET33      -0.2715
     16  CB        28.6740   39.8250   27.1680 C.3    33  MET33       0.0427
     17  CG        28.3870   40.4790   28.5120 C.3    33  MET33       0.0599
     18  SD        27.6010   39.3610   29.7030 S.3    33  MET33      -0.1393
     19  CE        25.8960   39.9510   29.6520 C.3    33  MET33       0.0692
     20  N         30.9130   39.0480   24.8660 N.am   34  THR34      -0.1937
     21  CA        31.1810   38.2910   23.6470 C.3    34  THR34       0.2028
     22  C         30.4300   36.9690   23.6420 C.2    34  THR34       0.2643
     23  O         29.9960   36.4830   24.6880 O.2    34  THR34      -0.2714
     24  CB        32.6810   37.9870   23.4910 C.3    34  THR34       0.1808
     25  OG1       33.1540   37.3110   24.6620 O.3    34  THR34      -0.2208
     26  CG2       33.4680   39.2690   23.2880 C.3    34  THR34       0.0379
     27  N         30.2760   36.3900   22.4570 N.am   35  SER35      -0.1935
     28  CA        29.5860   35.1140   22.3220 C.3    35  SER35       0.2055
     29  C         30.4620   34.0080   22.9010 C.2    35  SER35       0.2643
     30  O         31.6930   34.1050   22.8940 O.2    35  SER35      -0.2714
     31  CB        29.2920   34.8300   20.8510 C.3    35  SER35       0.2130
     32  OG        30.4930   34.7920   20.1040 O.3    35  SER35      -0.2179
     33  N         29.8270   32.9540   23.3950 N.am   36  ARG36      -0.1963
     34  CA        30.5600   31.8470   23.9920 C.3    36  ARG36       0.1729
     35  C         30.6180   30.6450   23.0520 C.2    36  ARG36       0.2616
     36  O         29.9120   29.6560   23.2360 O.2    36  ARG36      -0.2715
     37  CB        29.9110   31.4760   25.3300 C.3    36  ARG36       0.0348
     38  CG        29.9350   32.6280   26.3370 C.3    36  ARG36       0.0492
     39  CD        29.2380   32.2970   27.6550 C.3    36  ARG36       0.2205
     40  NE        29.8090   31.1100   28.2860 N.pl3  36  ARG36      -0.0865
     41  CZ        29.2800   29.8930   28.2050 C.cat  36  ARG36       0.5346
     42  NH1       28.1570   29.6980   27.5310 N.pl3  36  ARG36       0.1354
     43  NH2       29.8950   28.8630   28.7710 N.pl3  36  ARG36       0.1354
     44  N         31.4700   30.7430   22.0370 N.am   37  SER37      -0.1950
     45  CA        31.6160   29.6690   21.0680 C.3    37  SER37       0.1924
     46  C         31.9850   28.3580   21.7560 C.2    37  SER37       0.2314
     47  O         32.8570   28.3230   22.6280 O.2    37  SER37      -0.2863
     48  CB        32.6880   30.0260   20.0350 C.3    37  SER37       0.2116
     49  OG        33.9550   30.1630   20.6510 O.3    37  SER37      -0.2180
     50  N         27.3700   30.0610   31.1020 N.3    92  SER92      -0.1202
     51  CA        27.3720   31.4720   30.7270 C.3    92  SER92       0.2020
     52  C         28.6090   32.2000   31.2300 C.2    92  SER92       0.2619
     53  O         29.5270   31.5920   31.7870 O.2    92  SER92      -0.2717
     54  CB        26.1240   32.1520   31.3120 C.3    92  SER92       0.2103
     55  OG        25.9480   33.4600   30.7930 O.3    92  SER92      -0.2182
     56  N         28.6410   33.5090   30.9990 N.am   93  HIS93      -0.1961
     57  CA        29.7360   34.3250   31.5010 C.3    93  HIS93       0.1787
     58  C         29.3610   34.5020   32.9630 C.2    93  HIS93       0.2621
     59  O         28.1940   34.3510   33.3240 O.2    93  HIS93      -0.2715
     60  CB        29.7600   35.7020   30.8280 C.3    93  HIS93       0.0785
     61  CG        30.2680   35.6880   29.4210 C.ar   93  HIS93       0.0821
     62  ND1       31.5510   35.3030   29.0980 N.ar   93  HIS93      -0.2267
     63  CD2       29.6770   36.0440   28.2560 C.ar   93  HIS93       0.1154
     64  CE1       31.7290   35.4240   27.7940 C.ar   93  HIS93       0.1986
     65  NE2       30.6070   35.8720   27.2600 N.ar   93  HIS93      -0.2212
     66  N         30.3330   34.8180   33.8050 N.am   94  GLY94      -0.1940
     67  CA        30.0190   35.0140   35.2050 C.3    94  GLY94       0.2014
     68  C         31.1830   35.5470   36.0030 C.2    94  GLY94       0.2639
     69  O         32.2750   35.7490   35.4750 O.2    94  GLY94      -0.2714
     70  N         30.9250   35.8010   37.2810 N.am   95  GLU95      -0.1963
     71  CA        31.9410   36.2740   38.2080 C.3    95  GLU95       0.1733
     72  C         31.5920   35.5620   39.5030 C.2    95  GLU95       0.2616
     73  O         30.6130   34.8210   39.5490 O.2    95  GLU95      -0.2715
     74  CB        31.8550   37.7900   38.3890 C.3    95  GLU95       0.0429
     75  CG        31.7360   38.5450   37.0780 C.3    95  GLU95       0.1163
     76  CD        32.1700   39.9880   37.1990 C.2    95  GLU95       0.3649
     77  OE1       32.0540   40.5510   38.3100 O.co2  95  GLU95      -0.2457
     78  OE2       32.6150   40.5620   36.1800 O.co2  95  GLU95      -0.2457
     79  N         32.3730   35.7700   40.5540 N.am   96  GLU96      -0.1977
     80  CA        32.0750   35.0890   41.8040 C.3    96  GLU96       0.1602
     81  C         30.6440   35.3640   42.2650 C.2    96  GLU96       0.2287
     82  O         30.2600   36.5160   42.4650 O.2    96  GLU96      -0.2864
     83  CB        33.0560   35.5160   42.8980 C.3    96  GLU96       0.0415
     84  CG        32.9440   34.6740   44.1580 C.3    96  GLU96       0.1163
     85  CD        33.3630   33.2330   43.9280 C.2    96  GLU96       0.3649
     86  OE1       34.5790   32.9820   43.7800 O.co2  96  GLU96      -0.2457
     87  OE2       32.4760   32.3530   43.8860 O.co2  96  GLU96      -0.2457
     88  N         25.5520   35.3730   34.2630 N.3   100  PHE100     -0.1241
     89  CA        24.9780   36.3830   33.3890 C.3   100  PHE100      0.1605
     90  C         23.8750   35.9700   32.4400 C.2   100  PHE100      0.2264
     91  O         23.9850   34.9780   31.7190 O.2   100  PHE100     -0.2867
     92  CB        26.0760   37.0760   32.5770 C.3   100  PHE100      0.0534
     93  CG        26.8810   38.0560   33.3690 C.ar  100  PHE100     -0.0203
     94  CD1       27.8690   37.6200   34.2440 C.ar  100  PHE100     -0.0042
     95  CD2       26.6270   39.4200   33.2680 C.ar  100  PHE100     -0.0042
     96  CE1       28.5940   38.5290   35.0100 C.ar  100  PHE100     -0.0003
     97  CE2       27.3460   40.3380   34.0280 C.ar  100  PHE100     -0.0003
     98  CZ        28.3310   39.8920   34.9010 C.ar  100  PHE100     -0.0000
     99  N         29.2980   26.3710   34.8460 N.3   133  GLN133     -0.1231
    100  CA        30.4220   26.6430   33.9610 C.3   133  GLN133      0.1698
    101  C         30.3980   28.1510   33.7710 C.2   133  GLN133      0.2592
    102  O         29.5760   28.6760   33.0210 O.2   133  GLN133     -0.2718
    103  CB        30.2390   25.9370   32.6140 C.3   133  GLN133      0.0381
    104  CG        31.2220   26.3840   31.5240 C.3   133  GLN133      0.0905
    105  CD        32.6720   26.3410   31.9750 C.2   133  GLN133      0.2608
    106  OE1       33.0940   25.4060   32.6520 O.2   133  GLN133     -0.2717
    107  NE2       33.4460   27.3500   31.5860 N.am  133  GLN133     -0.0878
    108  N         31.2910   28.8400   34.4740 N.am  134  ALA134     -0.1966
    109  CA        31.3850   30.2950   34.4120 C.3   134  ALA134      0.1728
    110  C         32.5730   30.7590   35.2400 C.2   134  ALA134      0.2616
    111  O         33.0270   30.0490   36.1340 O.2   134  ALA134     -0.2715
    112  CB        30.0990   30.9340   34.9530 C.3   134  ALA134      0.0334
    113  N         33.0720   31.9520   34.9380 N.am  135  CYS135     -0.1968
    114  CA        34.1990   32.5180   35.6710 C.3   135  CYS135      0.1712
    115  C         33.7940   32.8410   37.1040 C.2   135  CYS135      0.2296
    116  O         32.6260   33.1200   37.3840 O.2   135  CYS135     -0.2864
    117  CB        34.7000   33.8000   34.9840 C.3   135  CYS135      0.0983
    118  SG        35.6530   33.4980   33.4700 S.3   135  CYS135     -0.0798
    119  N         36.1330   34.8360   38.8630 N.3   137  GLY137     -0.1210
    120  CA        37.1340   35.8460   39.1470 C.3   137  GLY137      0.1956
    121  C         38.0620   36.0340   37.9570 C.2   137  GLY137      0.2612
    122  O         37.7910   35.5210   36.8700 O.2   137  GLY137     -0.2717
    123  N         39.1560   36.7620   38.1600 N.am  138  THR138     -0.1952
    124  CA        40.1140   37.0160   37.0860 C.3   138  THR138      0.1897
    125  C         41.5030   36.4730   37.3610 C.2   138  THR138      0.2313
    126  O         42.4700   36.8900   36.7240 O.2   138  THR138     -0.2863
    127  CB        40.2730   38.5200   36.8060 C.3   138  THR138      0.1794
    128  OG1       40.5450   39.2090   38.0320 O.3   138  THR138     -0.2208
    129  CG2       39.0350   39.0750   36.1750 C.3   138  THR138      0.0378
    130  N         44.5590   33.7710   37.2980 N.3   140  LEU140     -0.1245
    131  CA        45.0340   32.7600   36.3660 C.3   140  LEU140      0.1561
    132  C         45.9740   31.8180   37.1070 C.2   140  LEU140      0.2260
    133  O         46.8100   32.2550   37.9010 O.2   140  LEU140     -0.2867
    134  CB        45.7500   33.4280   35.1840 C.3   140  LEU140      0.0270
    135  CG        44.8200   34.1600   34.2050 C.3   140  LEU140      0.0019
    136  CD1       45.6110   35.1300   33.3410 C.3   140  LEU140      0.0001
    137  CD2       44.0860   33.1420   33.3440 C.3   140  LEU140      0.0001
@<TRIPOS>BOND
     1    48    49    1
     2    48    45    1
     3    32    31    1
     4    31    28    1
     5    45    46    1
     6    45    44    1
     7    46    47    2
     8    44    35   am
     9    28    27    1
    10    28    29    1
    11    27    22   am
    12    30    29    2
    13    29    33   am
    14    35    36    2
    15    35    34    1
    16    26    24    1
    17    33    34    1
    18    24    21    1
    19    24    25    1
    20    22    21    1
    21    22    23    2
    22    21    20    1
    23    34    37    1
    24    15    14    2
    25    20    14   am
    26    14    13    1
    27    37    38    1
    28     9    10    1
    29     9     8    1
    30    11    10    2
    31    10    12   am
    32     8     3   am
    33    12    13    1
    34    13    16    1
    35    38    39    1
    36     1     2    1
    37     6     5    1
    38     3     2    1
    39     3     4    2
    40    16    17    1
    41    65    64   ar
    42    65    63   ar
    43     2     5    1
    44    42    41    1
    45    39    40    1
    46    64    62   ar
    47     5     7    1
    48    41    40    2
    49    41    43    1
    50    63    61   ar
    51    17    18    1
    52    62    61   ar
    53    61    60    1
    54    19    18    1
    55    51    50    1
    56    51    52    1
    57    51    54    1
    58    55    54    1
    59    60    57    1
    60    56    52   am
    61    56    57    1
    62    52    53    2
    63    57    58    1
    64   104   105    1
    65   104   103    1
    66   107   105   am
    67    91    90    2
    68   105   106    2
    69    90    89    1
    70    92    93    1
    71    92    89    1
    72   103   100    1
    73    58    59    2
    74    58    66   am
    75   102   101    2
    76    95    93   ar
    77    95    97   ar
    78   136   135    1
    79   137   135    1
    80    93    94   ar
    81    89    88    1
    82   118   117    1
    83   101   100    1
    84   101   108   am
    85    66    67    1
    86   100    99    1
    87    97    98   ar
    88   135   134    1
    89    94    96   ar
    90   109   108    1
    91   109   112    1
    92   109   110    1
    93    98    96   ar
    94   113   110   am
    95   113   114    1
    96   117   114    1
    97   134   131    1
    98    67    68    1
    99   110   111    2
   100    69    68    2
   101   114   115    1
   102    68    70   am
   103   129   127    1
   104    78    76   ar
   105   131   132    1
   106   131   130    1
   107   126   125    2
   108   127   124    1
   109   127   128    1
   110   122   121    2
   111    75    76    1
   112    75    74    1
   113   124   125    1
   114   124   123    1
   115   115   116    2
   116   132   133    2
   117    76    77   ar
   118    70    71    1
   119   121   123   am
   120   121   120    1
   121    71    74    1
   122    71    72    1
   123   119   120    1
   124    72    73    2
   125    72    79   am
   126    79    80    1
   127    80    81    1
   128    80    83    1
   129    81    82    2
   130    83    84    1
   131    86    85   ar
   132    87    85   ar
   133    85    84    1
