@<TRIPOS>MOLECULE
tmp/2cdrB00.pdb
 140 144 0 0 0
SMALL
GASTEIGER

@<TRIPOS>ATOM
      1  N         39.4520   32.3960   36.5790 N.3    30  TYR30      -0.1227
      2  CA        38.7520   32.3440   35.3000 C.3    30  TYR30       0.1736
      3  C         38.4150   30.8740   35.0850 C.2    30  TYR30       0.2596
      4  O         39.0010   30.0050   35.7240 O.2    30  TYR30      -0.2718
      5  CB        39.6600   32.7430   34.1350 C.3    30  TYR30       0.0548
      6  CG        40.0080   34.2040   33.9980 C.ar   30  TYR30      -0.0200
      7  CD1       41.2790   34.6640   34.3310 C.ar   30  TYR30      -0.0009
      8  CD2       39.1000   35.1090   33.4540 C.ar   30  TYR30      -0.0009
      9  CE1       41.6450   35.9900   34.1140 C.ar   30  TYR30       0.0417
     10  CE2       39.4530   36.4410   33.2350 C.ar   30  TYR30       0.0417
     11  CZ        40.7300   36.8700   33.5660 C.ar   30  TYR30       0.1957
     12  OH        41.1010   38.1760   33.3400 O.3    30  TYR30      -0.2866
     13  N         37.4830   30.6100   34.1760 N.am   31  SER31      -0.1938
     14  CA        37.1010   29.2520   33.8150 C.3    31  SER31       0.2055
     15  C         37.4060   29.1620   32.3210 C.2    31  SER31       0.2643
     16  O         37.1510   30.1160   31.5810 O.2    31  SER31      -0.2714
     17  CB        35.6110   29.0100   34.0560 C.3    31  SER31       0.2130
     18  OG        35.2710   27.6790   33.7010 O.3    31  SER31      -0.2179
     19  N         37.9340   28.0260   31.8750 N.am   32  TRP32      -0.1959
     20  CA        38.3000   27.8730   30.4680 C.3    32  TRP32       0.1771
     21  C         37.3340   27.1210   29.5650 C.2    32  TRP32       0.2620
     22  O         36.7270   26.1220   29.9580 O.2    32  TRP32      -0.2715
     23  CB        39.6820   27.2290   30.3620 C.3    32  TRP32       0.0590
     24  CG        40.7740   28.1470   30.7940 C.ar   32  TRP32       0.0006
     25  CD1       41.3600   28.2120   32.0240 C.ar   32  TRP32       0.0946
     26  CD2       41.3800   29.1750   30.0040 C.ar   32  TRP32       0.0152
     27  NE1       42.2970   29.2200   32.0490 N.ar   32  TRP32      -0.2442
     28  CE2       42.3290   29.8260   30.8210 C.ar   32  TRP32       0.0810
     29  CE3       41.2110   29.6090   28.6830 C.ar   32  TRP32       0.0012
     30  CZ2       43.1090   30.8920   30.3590 C.ar   32  TRP32       0.0191
     31  CZ3       41.9850   30.6690   28.2240 C.ar   32  TRP32       0.0001
     32  CH2       42.9230   31.2960   29.0620 C.ar   32  TRP32       0.0015
     33  N         37.2240   27.6050   28.3310 N.am   33  ARG33      -0.1963
     34  CA        36.3430   27.0070   27.3400 C.3    33  ARG33       0.1729
     35  C         37.0190   26.9300   25.9780 C.2    33  ARG33       0.2616
     36  O         37.6000   27.9090   25.5080 O.2    33  ARG33      -0.2715
     37  CB        35.0570   27.8330   27.2360 C.3    33  ARG33       0.0348
     38  CG        34.1730   27.5090   26.0440 C.3    33  ARG33       0.0492
     39  CD        32.8140   28.1890   26.1890 C.3    33  ARG33       0.2205
     40  NE        32.9560   29.5940   26.5590 N.pl3  33  ARG33      -0.0865
     41  CZ        33.4300   30.5350   25.7520 C.cat  33  ARG33       0.5346
     42  NH1       33.8020   30.2300   24.5140 N.pl3  33  ARG33       0.1354
     43  NH2       33.5570   31.7790   26.1910 N.pl3  33  ARG33       0.1354
     44  N         36.9520   25.7600   25.3520 N.am   34  ASN34      -0.1958
     45  CA        37.5340   25.5890   24.0250 C.3    34  ASN34       0.1819
     46  C         36.4460   25.9800   23.0340 C.2    34  ASN34       0.2622
     47  O         35.3370   25.4450   23.0790 O.2    34  ASN34      -0.2715
     48  CB        37.9650   24.1380   23.8100 C.3    34  ASN34       0.1195
     49  CG        38.6080   23.9210   22.4580 C.2    34  ASN34       0.2630
     50  OD1       37.9290   23.8920   21.4320 O.2    34  ASN34      -0.2716
     51  ND2       39.9270   23.7830   22.4470 N.am   34  ASN34      -0.0877
     52  N         36.7630   26.9180   22.1450 N.am   35  SER35      -0.1936
     53  CA        35.7950   27.4100   21.1720 C.3    35  SER35       0.2055
     54  C         35.2230   26.3460   20.2420 C.2    35  SER35       0.2642
     55  O         34.2180   26.5820   19.5750 O.2    35  SER35      -0.2714
     56  CB        36.4150   28.5430   20.3440 C.3    35  SER35       0.2130
     57  OG        37.5820   28.1070   19.6700 O.3    35  SER35      -0.2179
     58  N         35.8440   25.1730   20.2110 N.am   36  LYS36      -0.1977
     59  CA        35.3830   24.0980   19.3400 C.3    36  LYS36       0.1596
     60  C         34.8330   22.8750   20.0760 C.2    36  LYS36       0.2287
     61  O         33.7960   22.3270   19.6900 O.2    36  LYS36      -0.2864
     62  CB        36.5280   23.6590   18.4230 C.3    36  LYS36       0.0298
     63  CG        36.1360   22.6670   17.3390 C.3    36  LYS36       0.0038
     64  CD        37.3580   22.2280   16.5430 C.3    36  LYS36       0.0206
     65  CE        36.9660   21.4600   15.2880 C.3    36  LYS36       0.1093
     66  NZ        36.1280   20.2650   15.5850 N.3    36  LYS36      -0.1314
     67  N         33.6080   23.5840   27.0680 N.3    39  SER39      -0.1202
     68  CA        34.3800   23.8650   28.2760 C.3    39  SER39       0.2020
     69  C         35.1050   22.6280   28.7940 C.2    39  SER39       0.2618
     70  O         34.6210   21.5020   28.6610 O.2    39  SER39      -0.2717
     71  CB        33.4680   24.4310   29.3740 C.3    39  SER39       0.2103
     72  OG        32.5170   23.4720   29.8110 O.3    39  SER39      -0.2182
     73  N         36.2780   22.8370   29.3810 N.am   40  TRP40      -0.1975
     74  CA        37.0510   21.7250   29.9120 C.3    40  TRP40       0.1640
     75  C         36.2360   20.9870   30.9630 C.2    40  TRP40       0.2290
     76  O         36.2260   19.7580   31.0100 O.2    40  TRP40      -0.2864
     77  CB        38.3370   22.2220   30.5680 C.3    40  TRP40       0.0576
     78  CG        39.2420   23.0110   29.6820 C.ar   40  TRP40       0.0006
     79  CD1       39.1560   23.1620   28.3240 C.ar   40  TRP40       0.0946
     80  CD2       40.4150   23.7180   30.0940 C.ar   40  TRP40       0.0152
     81  NE1       40.2140   23.9210   27.8670 N.ar   40  TRP40      -0.2442
     82  CE2       41.0000   24.2720   28.9330 C.ar   40  TRP40       0.0810
     83  CE3       41.0320   23.9330   31.3340 C.ar   40  TRP40       0.0012
     84  CZ2       42.1750   25.0280   28.9780 C.ar   40  TRP40       0.0191
     85  CZ3       42.2000   24.6840   31.3780 C.ar   40  TRP40       0.0001
     86  CH2       42.7590   25.2230   30.2040 C.ar   40  TRP40       0.0015
     87  N         45.3420   22.4500   29.4150 N.3    74  GLU74      -0.1231
     88  CA        46.2090   23.6060   29.5860 C.3    74  GLU74       0.1699
     89  C         45.8350   24.5640   28.4690 C.2    74  GLU74       0.2593
     90  O         45.7360   24.1690   27.3080 O.2    74  GLU74      -0.2718
     91  CB        47.6830   23.2210   29.4910 C.3    74  GLU74       0.0402
     92  CG        48.6050   24.3970   29.7200 C.3    74  GLU74       0.1161
     93  CD        50.0630   24.0050   29.7170 C.2    74  GLU74       0.3649
     94  OE1       50.8560   24.7240   29.0780 O.co2  74  GLU74      -0.2457
     95  OE2       50.4140   22.9880   30.3560 O.co2  74  GLU74      -0.2457
     96  N         45.6270   25.8260   28.8180 N.am   75  SER75      -0.1938
     97  CA        45.2020   26.8090   27.8290 C.3    75  SER75       0.2055
     98  C         46.2020   27.1240   26.7310 C.2    75  SER75       0.2643
     99  O         47.4120   26.9760   26.8980 O.2    75  SER75      -0.2714
    100  CB        44.8100   28.1190   28.5160 C.3    75  SER75       0.2130
    101  OG        45.9600   28.8250   28.9480 O.3    75  SER75      -0.2179
    102  N         45.6580   27.5510   25.5970 N.am   76  PHE76      -0.1959
    103  CA        46.4480   27.9700   24.4510 C.3    76  PHE76       0.1771
    104  C         45.8740   29.3250   24.0690 C.2    76  PHE76       0.2620
    105  O         44.6670   29.4560   23.8490 O.2    76  PHE76      -0.2715
    106  CB        46.2900   27.0200   23.2660 C.3    76  PHE76       0.0574
    107  CG        47.0790   27.4430   22.0550 C.ar   76  PHE76      -0.0200
    108  CD1       48.4280   27.1290   21.9450 C.ar   76  PHE76      -0.0042
    109  CD2       46.4830   28.2050   21.0560 C.ar   76  PHE76      -0.0042
    110  CE1       49.1780   27.5690   20.8540 C.ar   76  PHE76      -0.0003
    111  CE2       47.2250   28.6530   19.9590 C.ar   76  PHE76      -0.0003
    112  CZ        48.5730   28.3340   19.8600 C.ar   76  PHE76      -0.0000
    113  N         46.7280   30.3380   24.0040 N.am   77  SER77      -0.1936
    114  CA        46.2750   31.6730   23.6440 C.3    77  SER77       0.2055
    115  C         47.3840   32.4440   22.9570 C.2    77  SER77       0.2643
    116  O         48.5580   32.2920   23.2940 O.2    77  SER77      -0.2714
    117  CB        45.8330   32.4450   24.8890 C.3    77  SER77       0.2130
    118  OG        45.4080   33.7540   24.5450 O.3    77  SER77      -0.2179
    119  N         47.0070   33.2660   21.9850 N.am   78  PHE78      -0.1973
    120  CA        47.9730   34.0900   21.2730 C.3    78  PHE78       0.1639
    121  C         48.4280   35.2070   22.2110 C.2    78  PHE78       0.2290
    122  O         49.4600   35.8370   21.9940 O.2    78  PHE78      -0.2864
    123  CB        47.3320   34.6560   20.0060 C.3    78  PHE78       0.0560
    124  CG        47.0860   33.6170   18.9430 C.ar   78  PHE78      -0.0200
    125  CD1       45.9610   33.6860   18.1290 C.ar   78  PHE78      -0.0042
    126  CD2       47.9880   32.5730   18.7530 C.ar   78  PHE78      -0.0042
    127  CE1       45.7370   32.7280   17.1380 C.ar   78  PHE78      -0.0003
    128  CE2       47.7750   31.6110   17.7670 C.ar   78  PHE78      -0.0003
    129  CZ        46.6470   31.6890   16.9580 C.ar   78  PHE78      -0.0000
    130  N         47.2110   34.9430   28.8190 N.3    82  PHE82      -0.1241
    131  CA        46.2550   33.8540   28.9800 C.3    82  PHE82       0.1605
    132  C         46.7410   32.5090   28.4680 C.2    82  PHE82       0.2264
    133  O         45.9610   31.5620   28.3700 O.2    82  PHE82      -0.2867
    134  CB        44.9470   34.2000   28.2630 C.3    82  PHE82       0.0534
    135  CG        44.2110   35.3520   28.8720 C.ar   82  PHE82      -0.0203
    136  CD1       44.6250   36.6610   28.6470 C.ar   82  PHE82      -0.0042
    137  CD2       43.1130   35.1270   29.6970 C.ar   82  PHE82      -0.0042
    138  CE1       43.9560   37.7290   29.2360 C.ar   82  PHE82      -0.0003
    139  CE2       42.4390   36.1890   30.2900 C.ar   82  PHE82      -0.0003
    140  CZ        42.8610   37.4900   30.0600 C.ar   82  PHE82      -0.0000
@<TRIPOS>BOND
     1    65    66    1
     2    65    64    1
     3    64    63    1
     4   129   127   ar
     5   129   128   ar
     6   127   125   ar
     7    63    62    1
     8   128   126   ar
     9   125   124   ar
    10    62    59    1
    11   126   124   ar
    12   124   123    1
    13    59    60    1
    14    59    58    1
    15    55    54    2
    16    57    56    1
    17    61    60    2
    18   112   111   ar
    19   112   110   ar
    20   111   109   ar
    21   123   120    1
    22    58    54   am
    23    54    53    1
    24    56    53    1
    25   110   108   ar
    26   109   107   ar
    27    53    52    1
    28   120   119    1
    29   120   121    1
    30    50    49    2
    31   108   107   ar
    32   119   115   am
    33   122   121    2
    34   107   106    1
    35    52    46   am
    36    51    49   am
    37    49    48    1
    38   115   116    2
    39   115   114    1
    40    46    47    2
    41    46    45    1
    42   106   103    1
    43   114   113    1
    44   114   117    1
    45    48    45    1
    46   105   104    2
    47   113   104   am
    48    45    44    1
    49   104   103    1
    50   103   102    1
    51    42    41    1
    52   118   117    1
    53    44    35   am
    54    36    35    2
    55   102    98   am
    56    41    43    1
    57    41    40    2
    58    35    34    1
    59    38    39    1
    60    38    37    1
    61    39    40    1
    62    98    99    2
    63    98    97    1
    64    67    68    1
    65    37    34    1
    66    90    89    2
    67    34    33    1
    68    97   100    1
    69    97    96    1
    70    81    79   ar
    71    81    82   ar
    72    31    29   ar
    73    31    32   ar
    74   134   135    1
    75   134   131    1
    76    68    69    1
    77    68    71    1
    78    79    78   ar
    79    33    21   am
    80   133   132    2
    81   132   131    1
    82    89    96   am
    83    89    88    1
    84   100   101    1
    85   136   135   ar
    86   136   138   ar
    87    70    69    2
    88    29    26   ar
    89    69    73   am
    90   130   131    1
    91   135   137   ar
    92    82    84   ar
    93    82    80   ar
    94    84    86   ar
    95    32    30   ar
    96    94    93   ar
    97   138   140   ar
    98    71    72    1
    99    73    74    1
   100    87    88    1
   101    91    88    1
   102    91    92    1
   103    21    22    2
   104    21    20    1
   105    78    80   ar
   106    78    77    1
   107   137   139   ar
   108    93    92    1
   109    93    95   ar
   110    74    77    1
   111    74    75    1
   112    26    24   ar
   113    26    28   ar
   114   140   139   ar
   115    80    83   ar
   116    86    85   ar
   117    30    28   ar
   118    23    20    1
   119    23    24    1
   120    20    19    1
   121    24    25   ar
   122    28    27   ar
   123    75    76    2
   124    83    85   ar
   125    16    15    2
   126    19    15   am
   127    25    27   ar
   128    15    14    1
   129    10     8   ar
   130    10    11   ar
   131    12    11    1
   132     8     6   ar
   133    11     9   ar
   134    18    17    1
   135    14    17    1
   136    14    13    1
   137     6     5    1
   138     6     7   ar
   139     9     7   ar
   140     5     2    1
   141    13     3   am
   142     3     2    1
   143     3     4    2
   144     2     1    1
