@<TRIPOS>MOLECULE
tmp/2cduA00.pdb
 187 179 0 0 0
SMALL
GASTEIGER

@<TRIPOS>ATOM
      1  N         -2.7040    2.8170   -0.4710 N.3     9  THR9       -0.1203
      2  CA        -2.2960    2.0460    0.6970 C.3     9  THR9        0.1994
      3  C         -2.0780    3.0340    1.8380 C.2     9  THR9        0.2618
      4  O         -3.0200    3.7580    2.1690 O.2     9  THR9       -0.2717
      5  CB        -1.0950    1.1710    0.3350 C.3     9  THR9        0.1784
      6  OG1       -1.4010    0.4490   -0.8620 O.3     9  THR9       -0.2211
      7  CG2       -0.9360    0.0790    1.3340 C.3     9  THR9        0.0376
      8  N         -0.9160    3.1100    2.4780 N.am   10  HIS10      -0.1961
      9  CA        -0.7820    3.9500    3.6910 C.3    10  HIS10       0.1787
     10  C         -1.0380    5.4520    3.4490 C.2    10  HIS10       0.2620
     11  O         -1.8610    6.1220    4.1430 O.2    10  HIS10      -0.2715
     12  CB         0.5840    3.7480    4.3400 C.3    10  HIS10       0.0785
     13  CG         0.5670    2.8360    5.5250 C.ar   10  HIS10       0.0821
     14  ND1       -0.3510    2.9480    6.5460 N.ar   10  HIS10      -0.2267
     15  CD2        1.3930    1.8200    5.8730 C.ar   10  HIS10       0.1154
     16  CE1       -0.0980    2.0310    7.4640 C.ar   10  HIS10       0.1986
     17  NE2        0.9480    1.3300    7.0740 N.ar   10  HIS10      -0.2212
     18  N         -0.2670    6.0160    2.5080 N.am   11  ALA11      -0.1963
     19  CA        -0.2690    7.4370    2.3040 C.3    11  ALA11       0.1728
     20  C         -1.5750    7.8920    1.6840 C.2    11  ALA11       0.2616
     21  O         -2.1640    8.8240    2.1590 O.2    11  ALA11      -0.2715
     22  CB         0.9410    7.8890    1.4660 C.3    11  ALA11       0.0334
     23  N         -2.0460    7.1740    0.6830 N.am   12  GLY12      -0.1955
     24  CA        -3.2810    7.5000    0.0080 C.3    12  GLY12       0.1869
     25  C         -4.4940    7.3440    0.9080 C.2    12  GLY12       0.2309
     26  O         -5.3830    8.1890    0.8640 O.2    12  GLY12      -0.2863
     27  N          1.2500   -3.8430    4.6930 N.3    41  SER41      -0.1217
     28  CA         2.3760   -4.6990    4.2560 C.3    41  SER41       0.1889
     29  C          3.3270   -5.0010    5.3990 C.2    41  SER41       0.2288
     30  O          4.0890   -5.9670    5.3760 O.2    41  SER41      -0.2866
     31  CB         3.1700   -3.9970    3.1570 C.3    41  SER41       0.2089
     32  OG         2.4300   -4.0070    1.9370 O.3    41  SER41      -0.2183
     33  N          2.7950   -6.0750    8.2040 N.3    42  GLY42      -0.1210
     34  CA         2.2780   -7.2780    8.8870 C.3    42  GLY42       0.1956
     35  C          2.5380   -8.5570    8.1380 C.2    42  GLY42       0.2612
     36  O          2.2030   -9.6060    8.6520 O.2    42  GLY42      -0.2717
     37  N          3.1610   -8.4940    6.9510 N.am   43  ILE43      -0.1965
     38  CA         3.2940   -9.6920    6.0960 C.3    43  ILE43       0.1727
     39  C          4.1660  -10.7830    6.7730 C.2    43  ILE43       0.2616
     40  O          3.8000  -11.9320    6.7560 O.2    43  ILE43      -0.2715
     41  CB         3.8620   -9.3130    4.7050 C.3    43  ILE43       0.0290
     42  CG1        2.7980   -8.5860    3.8630 C.3    43  ILE43       0.0022
     43  CG2        4.4630  -10.5150    3.9920 C.3    43  ILE43       0.0023
     44  CD1        3.3190   -7.9400    2.6090 C.3    43  ILE43       0.0001
     45  N          5.2950  -10.4280    7.3870 N.am   44  ALA44      -0.1977
     46  CA         6.1770  -11.4300    7.9970 C.3    44  ALA44       0.1597
     47  C          5.4570  -12.1480    9.1460 C.2    44  ALA44       0.2287
     48  O          5.5960  -13.3600    9.3170 O.2    44  ALA44      -0.2864
     49  CB         7.5020  -10.7760    8.4870 C.3    44  ALA44       0.0319
     50  N          0.3440    9.3280   -4.3990 N.3   111  THR111     -0.1203
     51  CA         0.6500    8.3650   -3.3560 C.3   111  THR111      0.1994
     52  C          0.9010    6.9750   -3.9630 C.2   111  THR111      0.2619
     53  O          0.3360    5.9500   -3.5300 O.2   111  THR111     -0.2717
     54  CB        -0.4700    8.3830   -2.2730 C.3   111  THR111      0.1784
     55  OG1       -1.7810    8.4660   -2.8560 O.3   111  THR111     -0.2211
     56  CG2       -0.3420    9.6360   -1.4380 C.3   111  THR111      0.0376
     57  N          1.7230    6.9890   -4.9960 N.am  112  THR112     -0.1938
     58  CA         1.9830    5.8260   -5.8510 C.3   112  THR112      0.2028
     59  C          3.0450    4.8890   -5.2620 C.2   112  THR112      0.2643
     60  O          3.3340    3.8140   -5.8180 O.2   112  THR112     -0.2714
     61  CB         2.4470    6.2620   -7.2290 C.3   112  THR112      0.1808
     62  OG1        3.4430    7.3090   -7.1170 O.3   112  THR112     -0.2208
     63  CG2        1.3100    6.8550   -8.0230 C.3   112  THR112      0.0379
     64  N          3.6500    5.3060   -4.1640 N.am  113  GLY113     -0.1939
     65  CA         4.5480    4.4510   -3.3910 C.3   113  GLY113      0.2014
     66  C          5.8020    3.9950   -4.1120 C.2   113  GLY113      0.2639
     67  O          6.4190    4.7410   -4.8540 O.2   113  GLY113     -0.2714
     68  N          6.1920    2.7620   -3.8460 N.am  114  SER114     -0.1949
     69  CA         7.3940    2.1320   -4.3970 C.3   114  SER114      0.1924
     70  C          7.0980    0.8480   -5.1360 C.2   114  SER114      0.2314
     71  O          6.0690    0.2040   -4.9310 O.2   114  SER114     -0.2863
     72  CB         8.3960    1.8270   -3.2840 C.3   114  SER114      0.2116
     73  OG         7.7400    1.0970   -2.2660 O.3   114  SER114     -0.2180
     74  N          7.7730   -9.8690   -2.4710 N.3   132  CYS132     -0.1221
     75  CA         7.1410   -9.7090   -1.1710 C.3   132  CYS132      0.1808
     76  C          6.9200   -8.2350   -0.8780 C.2   132  CYS132      0.2601
     77  O          7.7170   -7.5820   -0.1710 O.2   132  CYS132     -0.2717
     78  CB         7.9910  -10.3560   -0.0830 C.3   132  CYS132      0.0970
     79  SG         7.0830  -10.4570    1.4790 S.3   132  CYS132     -0.0800
     80  N          5.8710   -7.6920   -1.4720 N.am  133  LYS133     -0.1979
     81  CA         5.5470   -6.2790   -1.2900 C.3   133  LYS133      0.1596
     82  C          4.1630   -6.0760   -0.7560 C.2   133  LYS133      0.2287
     83  O          3.9810   -5.2890    0.1360 O.2   133  LYS133     -0.2864
     84  CB         5.6880   -5.4250   -2.5630 C.3   133  LYS133      0.0298
     85  CG         5.8370   -3.9130   -2.1730 C.3   133  LYS133      0.0038
     86  CD         5.3050   -2.9190   -3.1870 C.3   133  LYS133      0.0206
     87  CE         4.7310   -1.6710   -2.4900 C.3   133  LYS133      0.1093
     88  NZ         5.7270   -0.7680   -1.8200 N.3   133  LYS133     -0.1314
     89  N         15.7210   -5.2800    6.1960 N.3   158  TYR158     -0.1227
     90  CA        14.6600   -5.4730    7.1720 C.3   158  TYR158      0.1736
     91  C         13.6690   -6.5750    6.7660 C.2   158  TYR158      0.2595
     92  O         13.3060   -7.3980    7.5870 O.2   158  TYR158     -0.2718
     93  CB        13.8510   -4.1790    7.3890 C.3   158  TYR158      0.0548
     94  CG        14.3520   -3.3120    8.5050 C.ar  158  TYR158     -0.0200
     95  CD1       13.5330   -2.9390    9.5650 C.ar  158  TYR158     -0.0009
     96  CD2       15.6630   -2.8300    8.4870 C.ar  158  TYR158     -0.0009
     97  CE1       14.0400   -2.1080   10.6130 C.ar  158  TYR158      0.0417
     98  CE2       16.1650   -2.0200    9.5150 C.ar  158  TYR158      0.0417
     99  CZ        15.3650   -1.6540   10.5690 C.ar  158  TYR158      0.1957
    100  OH        15.9220   -0.8330   11.5770 O.3   158  TYR158     -0.2866
    101  N         13.2280   -6.5870    5.5090 N.am  159  ILE159     -0.1980
    102  CA        12.2160   -7.5580    5.1160 C.3   159  ILE159      0.1595
    103  C         12.7860   -8.9860    5.0860 C.2   159  ILE159      0.2287
    104  O         12.1570   -9.9080    5.5940 O.2   159  ILE159     -0.2864
    105  CB        11.5880   -7.1880    3.7770 C.3   159  ILE159      0.0276
    106  CG1       10.8380   -5.8580    3.9500 C.3   159  ILE159      0.0022
    107  CG2       10.5610   -8.3140    3.3510 C.3   159  ILE159      0.0022
    108  CD1       10.6730   -5.1050    2.6880 C.3   159  ILE159      0.0001
    109  N         13.3260  -10.3830    8.5920 N.3   162  GLU162     -0.1245
    110  CA        12.0620  -10.7650    9.1660 C.3   162  GLU162      0.1567
    111  C         11.5460  -12.0600    8.5830 C.2   162  GLU162      0.2260
    112  O         10.9770  -12.8630    9.3260 O.2   162  GLU162     -0.2867
    113  CB        10.9720   -9.6530    8.9750 C.3   162  GLU162      0.0388
    114  CG        11.1190   -8.4800    9.9070 C.3   162  GLU162      0.1160
    115  CD         9.9300   -7.5150    9.8900 C.2   162  GLU162      0.3649
    116  OE1        9.1710   -7.4720    8.8910 O.co2 162  GLU162     -0.2457
    117  OE2        9.7820   -6.7690   10.8910 O.co2 162  GLU162     -0.2457
    118  N         13.4050   -1.4860   -2.8130 N.3   244  PHE244     -0.1241
    119  CA        12.3490   -0.8250   -3.5900 C.3   244  PHE244      0.1605
    120  C         12.8530    0.4690   -4.2090 C.2   244  PHE244      0.2264
    121  O         13.8950    1.0140   -3.8190 O.2   244  PHE244     -0.2867
    122  CB        11.2030   -0.4910   -2.6660 C.3   244  PHE244      0.0534
    123  CG        10.6430   -1.6850   -1.9600 C.ar  244  PHE244     -0.0203
    124  CD1       11.0520   -1.9900   -0.6690 C.ar  244  PHE244     -0.0042
    125  CD2        9.7590   -2.5300   -2.5990 C.ar  244  PHE244     -0.0042
    126  CE1       10.5580   -3.1050   -0.0230 C.ar  244  PHE244     -0.0003
    127  CE2        9.2560   -3.6480   -1.9510 C.ar  244  PHE244     -0.0003
    128  CZ         9.6580   -3.9330   -0.6680 C.ar  244  PHE244     -0.0000
    129  N          3.2940   12.1410   -1.1350 N.3   279  ALA279     -0.1231
    130  CA         3.3710   11.5950    0.2260 C.3   279  ALA279      0.1694
    131  C          3.6640   10.0950    0.1660 C.2   279  ALA279      0.2593
    132  O          3.1460    9.3730   -0.6830 O.2   279  ALA279     -0.2718
    133  CB         2.0600   11.8430    0.9840 C.3   279  ALA279      0.0304
    134  N          4.4600    9.6250    1.1120 N.am  280  GLY280     -0.1942
    135  CA         4.8670    8.2390    1.1630 C.3   280  GLY280      0.2014
    136  C          6.0630    7.8740    0.3400 C.2   280  GLY280      0.2638
    137  O          6.9560    8.6930    0.1260 O.2   280  GLY280     -0.2714
    138  N          6.0920    6.6240   -0.1060 N.am  281  ASP281     -0.1971
    139  CA         7.2580    6.0790   -0.7850 C.3   281  ASP281      0.1709
    140  C          7.5220    6.7150   -2.1430 C.2   281  ASP281      0.2293
    141  O          8.5420    6.4440   -2.7310 O.2   281  ASP281     -0.2864
    142  CB         7.1280    4.5730   -0.9500 C.3   281  ASP281      0.1436
    143  CG         7.4720    3.7980    0.3010 C.2   281  ASP281      0.3671
    144  OD1        7.5550    2.5560    0.1390 O.co2 281  ASP281     -0.2456
    145  OD2        7.6580    4.2980    1.4470 O.co2 281  ASP281     -0.2456
    146  N         11.8750    5.1790    2.9190 N.3   297  PRO297     -0.2102
    147  CA        10.5590    4.6050    2.6460 C.3   297  PRO297      0.1504
    148  C         10.0330    3.7800    3.8060 C.2   297  PRO297      0.2576
    149  O         10.2540    2.5870    3.8860 O.2   297  PRO297     -0.2718
    150  CB        10.8020    3.7610    1.3880 C.3   297  PRO297      0.0282
    151  CG        12.2140    3.2940    1.5410 C.3   297  PRO297      0.0208
    152  CD        12.9230    4.4590    2.1640 C.3   297  PRO297      0.0893
    153  N          9.3500    4.4550    4.7280 N.am  298  LEU298     -0.1966
    154  CA         8.7590    3.8030    5.8940 C.3   298  LEU298      0.1728
    155  C          7.3050    4.2230    6.0450 C.2   298  LEU298      0.2616
    156  O          6.9420    5.3550    5.6730 O.2   298  LEU298     -0.2715
    157  CB         9.4990    4.2410    7.1620 C.3   298  LEU298      0.0311
    158  CG        10.9650    3.8320    7.3200 C.3   298  LEU298      0.0022
    159  CD1       11.5070    4.4680    8.5670 C.3   298  LEU298      0.0001
    160  CD2       11.1300    2.3170    7.4240 C.3   298  LEU298      0.0001
    161  N          6.4940    3.3120    6.5950 N.am  299  ALA299     -0.1963
    162  CA         5.0920    3.5680    6.8910 C.3   299  ALA299      0.1728
    163  C          4.8980    4.7920    7.7360 C.2   299  ALA299      0.2616
    164  O          3.8960    5.5100    7.5900 O.2   299  ALA299     -0.2715
    165  CB         4.4570    2.3770    7.5830 C.3   299  ALA299      0.0334
    166  N          5.8490    5.0350    8.6440 N.am  300  THR300     -0.1951
    167  CA         5.7250    6.1820    9.5410 C.3   300  THR300      0.1897
    168  C          5.6800    7.4800    8.7660 C.2   300  THR300      0.2313
    169  O          4.9510    8.3960    9.1360 O.2   300  THR300     -0.2863
    170  CB         6.9070    6.2480   10.4710 C.3   300  THR300      0.1794
    171  OG1        8.1050    6.1060    9.6970 O.3   300  THR300     -0.2208
    172  CG2        6.8810    5.0650   11.4330 C.3   300  THR300      0.0378
    173  N          4.7900    7.6920    5.5000 N.3   302  ALA302     -0.1245
    174  CA         3.5940    7.6350    4.7050 C.3   302  ALA302      0.1562
    175  C          2.3640    8.1490    5.4510 C.2   302  ALA302      0.2260
    176  O          1.6180    8.9580    4.9080 O.2   302  ALA302     -0.2867
    177  CB         3.3620    6.2500    4.2230 C.3   302  ALA302      0.0290
    178  N         13.2380    3.1330   13.3540 N.3   327  SER327     -0.1202
    179  CA        12.7880    1.8170   12.8770 C.3   327  SER327      0.2020
    180  C         13.1940    0.7060   13.8420 C.2   327  SER327      0.2619
    181  O         14.0540    0.8760   14.6960 O.2   327  SER327     -0.2717
    182  CB        13.3270    1.5490   11.4730 C.3   327  SER327      0.2103
    183  OG        14.7370    1.6240   11.4330 O.3   327  SER327     -0.2182
    184  N         12.5280   -0.4230   13.7500 N.am  328  GLY328     -0.1956
    185  CA        12.8120   -1.5000   14.6580 C.3   328  GLY328      0.1869
    186  C         12.3020   -2.8510   14.1990 C.2   328  GLY328      0.2309
    187  O         11.4790   -2.9260   13.2960 O.2   328  GLY328     -0.2863
@<TRIPOS>BOND
     1    63    61    1
     2    61    62    1
     3    61    58    1
     4    58    59    1
     5    58    57    1
     6    60    59    2
     7    59    64   am
     8    70    71    2
     9    70    69    1
    10    57    52   am
    11    67    66    2
    12    50    51    1
    13    69    68    1
    14    69    72    1
    15   120   121    2
    16   120   119    1
    17    64    65    1
    18    66    68   am
    19    66    65    1
    20    52    53    2
    21    52    51    1
    22   119   118    1
    23   119   122    1
    24    51    54    1
    25    72    73    1
    26    86    87    1
    27    86    85    1
    28    55    54    1
    29   141   140    2
    30   122   123    1
    31   125   123   ar
    32   125   127   ar
    33    84    85    1
    34    84    81    1
    35    87    88    1
    36    74    75    1
    37    54    56    1
    38   140   139    1
    39   123   124   ar
    40   127   128   ar
    41    80    81    1
    42    80    76   am
    43    81    82    1
    44    75    76    1
    45    75    78    1
    46   129   130    1
    47   142   139    1
    48   142   143    1
    49    76    77    2
    50     6     5    1
    51   139   138    1
    52    82    83    2
    53   132   131    2
    54   124   126   ar
    55   128   126   ar
    56     1     2    1
    57   138   136   am
    58    78    79    1
    59    24    23    1
    60    24    25    1
    61   137   136    2
    62   144   143   ar
    63   131   130    1
    64   131   134   am
    65   130   133    1
    66   143   145   ar
    67     5     2    1
    68     5     7    1
    69   136   135    1
    70    23    20   am
    71     2     3    1
    72    26    25    2
    73   134   135    1
    74   150   151    1
    75   150   147    1
    76    22    19    1
    77   151   152    1
    78    20    21    2
    79    20    19    1
    80     3     4    2
    81     3     8   am
    82    32    31    1
    83   152   146    1
    84    19    18    1
    85     8     9    1
    86    18    10   am
    87    44    42    1
    88   147   146    1
    89   147   148    1
    90   108   106    1
    91    31    28    1
    92   107   105    1
    93    10     9    1
    94    10    11    2
    95     9    12    1
    96   105   106    1
    97   105   102    1
    98   148   149    2
    99   148   153   am
   100    42    41    1
   101    43    41    1
   102   177   174    1
   103    28    27    1
   104    28    29    1
   105    12    13    1
   106   174   175    1
   107   174   173    1
   108    41    38    1
   109   153   154    1
   110   176   175    2
   111   103   102    1
   112   103   104    2
   113   102   101    1
   114    30    29    2
   115   101    91   am
   116    13    15   ar
   117    13    14   ar
   118   156   155    2
   119    15    17   ar
   120   154   155    1
   121   154   157    1
   122   155   161   am
   123    38    39    1
   124    38    37    1
   125    89    90    1
   126    14    16   ar
   127   161   162    1
   128    40    39    2
   129    91    90    1
   130    91    92    2
   131    39    45   am
   132   162   165    1
   133   162   163    1
   134    37    35   am
   135    17    16   ar
   136   157   158    1
   137    90    93    1
   138   158   160    1
   139   158   159    1
   140    45    46    1
   141    93    94    1
   142   164   163    2
   143   163   166   am
   144    46    49    1
   145    46    47    1
   146    35    36    2
   147    35    34    1
   148    33    34    1
   149    96    94   ar
   150    96    98   ar
   151    94    95   ar
   152   111   110    1
   153   111   112    2
   154   109   110    1
   155   166   167    1
   156   168   169    2
   157   168   167    1
   158   116   115   ar
   159   113   110    1
   160   113   114    1
   161    47    48    2
   162    98    99   ar
   163   167   170    1
   164    95    97   ar
   165   171   170    1
   166   115   114    1
   167   115   117   ar
   168   170   172    1
   169    99    97   ar
   170    99   100    1
   171   183   182    1
   172   182   179    1
   173   179   178    1
   174   179   180    1
   175   187   186    2
   176   184   180   am
   177   184   185    1
   178   180   181    2
   179   186   185    1
