@<TRIPOS>MOLECULE
tmp/2cduA01.pdb
 169 168 0 0 0
SMALL
GASTEIGER

@<TRIPOS>ATOM
      1  N         16.5180   -6.5660  -10.8050 N.3   119  PRO119     -0.2116
      2  CA        17.5760   -6.3610  -11.7990 C.3   119  PRO119      0.1372
      3  C         17.5080   -7.4630  -12.8350 C.2   119  PRO119      0.2244
      4  O         16.7850   -8.4540  -12.6080 O.2   119  PRO119     -0.2868
      5  CB        18.8680   -6.4320  -10.9640 C.3   119  PRO119      0.0268
      6  CG        18.5140   -7.2050   -9.7470 C.3   119  PRO119      0.0207
      7  CD        17.0250   -7.2130   -9.5840 C.3   119  PRO119      0.0892
      8  N         18.9800  -10.0110  -13.5980 N.3   121  ILE121     -0.1245
      9  CA        19.7010  -11.2110  -13.2240 C.3   121  ILE121      0.1561
     10  C         19.0430  -12.3500  -13.9940 C.2   121  ILE121      0.2260
     11  O         17.8290  -12.4950  -13.9310 O.2   121  ILE121     -0.2867
     12  CB        19.5660  -11.4180  -11.6910 C.3   121  ILE121      0.0252
     13  CG1       20.3330  -10.3170  -10.9780 C.3   121  ILE121      0.0019
     14  CG2       20.0570  -12.8170  -11.2680 C.3   121  ILE121      0.0019
     15  CD1       20.3330  -10.4430   -9.4710 C.3   121  ILE121      0.0001
     16  N         16.5620  -13.8300   -0.6290 N.3   154  ILE154     -0.1231
     17  CA        17.6290  -13.0080   -1.2030 C.3   154  ILE154      0.1692
     18  C         17.5080  -11.5940   -0.6980 C.2   154  ILE154      0.2593
     19  O         16.5270  -10.9060   -0.9920 O.2   154  ILE154     -0.2718
     20  CB        17.6020  -13.0780   -2.7450 C.3   154  ILE154      0.0266
     21  CG1       17.7960  -14.5400   -3.2130 C.3   154  ILE154      0.0019
     22  CG2       18.7010  -12.1660   -3.3390 C.3   154  ILE154      0.0020
     23  CD1       16.5350  -15.2940   -3.4870 C.3   154  ILE154      0.0001
     24  N         18.5440  -11.1140   -0.0050 N.am  155  GLY155     -0.1942
     25  CA        18.4980   -9.8160    0.6210 C.3   155  GLY155      0.2014
     26  C         18.2650   -9.8520    2.1130 C.2   155  GLY155      0.2640
     27  O         17.2370  -10.3370    2.5780 O.2   155  GLY155     -0.2714
     28  N         19.2400   -9.3790    2.8810 N.am  156  SER156     -0.1935
     29  CA        19.1200   -9.3670    4.3310 C.3   156  SER156      0.2055
     30  C         18.9840   -7.9660    4.8980 C.2   156  SER156      0.2644
     31  O         19.6270   -7.6100    5.8880 O.2   156  SER156     -0.2714
     32  CB        20.3050  -10.0990    4.9700 C.3   156  SER156      0.2130
     33  OG        21.5060   -9.3770    4.7790 O.3   156  SER156     -0.2179
     34  N         18.1620   -7.1430    4.2760 N.am  157  GLY157     -0.1939
     35  CA        17.6710   -5.9300    4.9130 C.3   157  GLY157      0.2014
     36  C         16.5430   -6.2710    5.8450 C.2   157  GLY157      0.2639
     37  O         16.3950   -7.4230    6.2570 O.2   157  GLY157     -0.2714
     38  N         15.7210   -5.2800    6.1960 N.am  158  TYR158     -0.1959
     39  CA        14.6600   -5.4730    7.1720 C.3   158  TYR158      0.1771
     40  C         13.6690   -6.5750    6.7660 C.2   158  TYR158      0.2619
     41  O         13.3060   -7.3980    7.5870 O.2   158  TYR158     -0.2715
     42  CB        13.8510   -4.1790    7.3890 C.3   158  TYR158      0.0574
     43  CG        14.3520   -3.3120    8.5050 C.ar  158  TYR158     -0.0198
     44  CD1       13.5330   -2.9390    9.5650 C.ar  158  TYR158     -0.0009
     45  CD2       15.6630   -2.8300    8.4870 C.ar  158  TYR158     -0.0009
     46  CE1       14.0400   -2.1080   10.6130 C.ar  158  TYR158      0.0417
     47  CE2       16.1650   -2.0200    9.5150 C.ar  158  TYR158      0.0417
     48  CZ        15.3650   -1.6540   10.5690 C.ar  158  TYR158      0.1957
     49  OH        15.9220   -0.8330   11.5770 O.3   158  TYR158     -0.2866
     50  N         13.2280   -6.5870    5.5090 N.am  159  ILE159     -0.1963
     51  CA        12.2160   -7.5580    5.1160 C.3   159  ILE159      0.1727
     52  C         12.7860   -8.9860    5.0860 C.2   159  ILE159      0.2616
     53  O         12.1570   -9.9080    5.5940 O.2   159  ILE159     -0.2715
     54  CB        11.5880   -7.1880    3.7770 C.3   159  ILE159      0.0290
     55  CG1       10.8380   -5.8580    3.9500 C.3   159  ILE159      0.0022
     56  CG2       10.5610   -8.3140    3.3510 C.3   159  ILE159      0.0023
     57  CD1       10.6730   -5.1050    2.6880 C.3   159  ILE159      0.0001
     58  N         13.9200   -9.1500    4.4360 N.am  160  GLY160     -0.1955
     59  CA        14.5670  -10.4520    4.3420 C.3   160  GLY160      0.1869
     60  C         14.8700  -11.0630    5.7080 C.2   160  GLY160      0.2309
     61  O         14.6310  -12.2340    5.9360 O.2   160  GLY160     -0.2863
     62  N         20.6150  -15.0840    1.8310 N.3   177  ILE177     -0.1231
     63  CA        21.7140  -14.6460    0.9970 C.3   177  ILE177      0.1692
     64  C         21.7870  -13.1670    0.9020 C.2   177  ILE177      0.2592
     65  O         20.7760  -12.5290    0.6330 O.2   177  ILE177     -0.2718
     66  CB        21.5910  -15.2420   -0.4400 C.3   177  ILE177      0.0266
     67  CG1       21.3550  -16.7290   -0.3580 C.3   177  ILE177      0.0019
     68  CG2       22.8470  -14.9210   -1.2530 C.3   177  ILE177      0.0020
     69  CD1       21.0500  -17.3830   -1.7230 C.3   177  ILE177      0.0001
     70  N         22.9810  -12.6000    1.0480 N.am  178  ASP178     -0.1960
     71  CA        23.1740  -11.1650    0.8610 C.3   178  ASP178      0.1840
     72  C         24.5940  -10.8850    0.3660 C.2   178  ASP178      0.2623
     73  O         25.5130  -11.6410    0.6610 O.2   178  ASP178     -0.2715
     74  CB        22.9120  -10.4380    2.1840 C.3   178  ASP178      0.1450
     75  CG        22.7310   -8.9560    2.0280 C.2   178  ASP178      0.3671
     76  OD1       21.5850   -8.5230    1.7670 O.co2 178  ASP178     -0.2456
     77  OD2       23.6770   -8.1270    2.1710 O.co2 178  ASP178     -0.2456
     78  N         24.7420   -9.8030   -0.3860 N.am  179  GLY179     -0.1940
     79  CA        26.0310   -9.3490   -0.8720 C.3   179  GLY179      0.2014
     80  C         26.9670   -8.8040    0.1900 C.2   179  GLY179      0.2638
     81  O         28.1830   -8.8200    0.0130 O.2   179  GLY179     -0.2714
     82  N         26.4120   -8.3050    1.2880 N.am  180  HIS180     -0.1973
     83  CA        27.2180   -7.8220    2.4030 C.3   180  HIS180      0.1656
     84  C         27.7140   -8.9870    3.2650 C.2   180  HIS180      0.2291
     85  O         27.1420  -10.0850    3.2700 O.2   180  HIS180     -0.2864
     86  CB        26.4210   -6.8150    3.2570 C.3   180  HIS180      0.0771
     87  CG        26.0300   -5.5660    2.5300 C.ar  180  HIS180      0.0820
     88  ND1       24.7340   -5.3110    2.1200 N.ar  180  HIS180     -0.2267
     89  CD2       26.7600   -4.4910    2.1460 C.ar  180  HIS180      0.1154
     90  CE1       24.6870   -4.1350    1.5170 C.ar  180  HIS180      0.1986
     91  NE2       25.9020   -3.6170    1.5220 N.ar  180  HIS180     -0.2212
     92  N         23.4910   -5.0430    7.3150 N.3   185  TYR185     -0.1227
     93  CA        24.7540   -4.2940    7.2450 C.3   185  TYR185      0.1736
     94  C         24.5240   -2.7720    7.3210 C.2   185  TYR185      0.2595
     95  O         25.2120   -2.0550    8.0500 O.2   185  TYR185     -0.2718
     96  CB        25.4640   -4.6400    5.9390 C.3   185  TYR185      0.0548
     97  CG        26.7830   -3.9850    5.7650 C.ar  185  TYR185     -0.0200
     98  CD1       27.9430   -4.5780    6.2680 C.ar  185  TYR185     -0.0009
     99  CD2       26.9010   -2.7640    5.0930 C.ar  185  TYR185     -0.0009
    100  CE1       29.1800   -3.9760    6.1060 C.ar  185  TYR185      0.0417
    101  CE2       28.1370   -2.1670    4.9300 C.ar  185  TYR185      0.0417
    102  CZ        29.2660   -2.7760    5.4470 C.ar  185  TYR185      0.1957
    103  OH        30.5010   -2.1900    5.2910 O.3   185  TYR185     -0.2866
    104  N         23.5640   -2.2820    6.5400 N.am  186  LYS186     -0.1966
    105  CA        23.2830   -0.8480    6.4360 C.3   186  LYS186      0.1728
    106  C         22.6340   -0.2550    7.6750 C.2   186  LYS186      0.2616
    107  O         22.6100    0.9660    7.8330 O.2   186  LYS186     -0.2715
    108  CB        22.3610   -0.5450    5.2390 C.3   186  LYS186      0.0311
    109  CG        23.0840   -0.4470    3.8830 C.3   186  LYS186      0.0038
    110  CD        22.1350   -0.7040    2.6840 C.3   186  LYS186      0.0206
    111  CE        22.9120   -0.9730    1.3800 C.3   186  LYS186      0.1093
    112  NZ        22.0930   -1.6960    0.3500 N.3   186  LYS186     -0.1314
    113  N         22.0930   -1.1010    8.5330 N.am  187  TYR187     -0.1974
    114  CA        21.1190   -0.6870    9.5240 C.3   187  TYR187      0.1639
    115  C         21.6060   -0.7420   10.9660 C.2   187  TYR187      0.2290
    116  O         21.1170   -0.0060   11.8150 O.2   187  TYR187     -0.2864
    117  CB        19.8670   -1.5600    9.3350 C.3   187  TYR187      0.0560
    118  CG        19.2560   -1.3180    7.9760 C.ar  187  TYR187     -0.0198
    119  CD1       19.1030   -2.3460    7.0540 C.ar  187  TYR187     -0.0009
    120  CD2       18.8730   -0.0340    7.5980 C.ar  187  TYR187     -0.0009
    121  CE1       18.5600   -2.0960    5.7810 C.ar  187  TYR187      0.0417
    122  CE2       18.3250    0.2260    6.3400 C.ar  187  TYR187      0.0417
    123  CZ        18.1730   -0.8090    5.4370 C.ar  187  TYR187      0.1957
    124  OH        17.6420   -0.5290    4.1960 O.3   187  TYR187     -0.2866
    125  N         27.0600  -11.3610   -4.0420 N.3   212  LYS212     -0.1231
    126  CA        25.7410  -11.1860   -4.6490 C.3   212  LYS212      0.1693
    127  C         25.3220  -12.3740   -5.5080 C.2   212  LYS212      0.2591
    128  O         26.1570  -13.1380   -6.0710 O.2   212  LYS212     -0.2718
    129  CB        25.6380   -9.9220   -5.4930 C.3   212  LYS212      0.0285
    130  CG        25.4140   -8.6630   -4.7080 C.3   212  LYS212      0.0035
    131  CD        25.2820   -7.4490   -5.6470 C.3   212  LYS212      0.0206
    132  CE        24.8390   -6.1900   -4.8910 C.3   212  LYS212      0.1093
    133  NZ        24.8850   -4.9850   -5.7730 N.3   212  LYS212     -0.1314
    134  N         24.0080  -12.5320   -5.5930 N.am  213  VAL213     -0.1980
    135  CA        23.3950  -13.4680   -6.5180 C.3   213  VAL213      0.1595
    136  C         23.6080  -12.9570   -7.9410 C.2   213  VAL213      0.2287
    137  O         23.3380  -11.7690   -8.2450 O.2   213  VAL213     -0.2864
    138  CB        21.8800  -13.6330   -6.2650 C.3   213  VAL213      0.0276
    139  CG1       21.2420  -14.5060   -7.3300 C.3   213  VAL213      0.0022
    140  CG2       21.6390  -14.1890   -4.8790 C.3   213  VAL213      0.0022
    141  N         14.0300   -9.9820   -1.7840 N.3   241  CYS241     -0.1221
    142  CA        13.8780   -8.9200   -0.8120 C.3   241  CYS241      0.1808
    143  C         15.0690   -7.9640   -0.9160 C.2   241  CYS241      0.2601
    144  O         15.7570   -7.7270    0.0660 O.2   241  CYS241     -0.2717
    145  CB        13.8100   -9.4670    0.6210 C.3   241  CYS241      0.0970
    146  SG        12.5930  -10.7490    0.9170 S.3   241  CYS241     -0.0800
    147  N         15.2760   -7.4140   -2.1120 N.am  242  ILE242     -0.1965
    148  CA        16.4390   -6.5900   -2.3900 C.3   242  ILE242      0.1727
    149  C         16.0850   -5.1280   -2.6160 C.2   242  ILE242      0.2617
    150  O         16.7910   -4.4180   -3.3370 O.2   242  ILE242     -0.2715
    151  CB        17.2510   -7.1730   -3.5630 C.3   242  ILE242      0.0290
    152  CG1       16.3820   -7.3180   -4.8200 C.3   242  ILE242      0.0022
    153  CG2       17.8440   -8.5180   -3.1770 C.3   242  ILE242      0.0023
    154  CD1       17.1750   -7.4570   -6.0900 C.3   242  ILE242      0.0001
    155  N         15.0030   -4.6930   -1.9890 N.am  243  GLY243     -0.1940
    156  CA        14.6670   -3.2890   -1.8870 C.3   243  GLY243      0.2014
    157  C         13.6560   -2.7850   -2.8840 C.2   243  GLY243      0.2638
    158  O         13.1460   -3.5360   -3.7120 O.2   243  GLY243     -0.2714
    159  N         13.4050   -1.4860   -2.8130 N.am  244  PHE244     -0.1973
    160  CA        12.3490   -0.8250   -3.5900 C.3   244  PHE244      0.1639
    161  C         12.8530    0.4690   -4.2090 C.2   244  PHE244      0.2290
    162  O         13.8950    1.0140   -3.8190 O.2   244  PHE244     -0.2864
    163  CB        11.2030   -0.4910   -2.6660 C.3   244  PHE244      0.0560
    164  CG        10.6430   -1.6850   -1.9600 C.ar  244  PHE244     -0.0200
    165  CD1       11.0520   -1.9900   -0.6690 C.ar  244  PHE244     -0.0042
    166  CD2        9.7590   -2.5300   -2.5990 C.ar  244  PHE244     -0.0042
    167  CE1       10.5580   -3.1050   -0.0230 C.ar  244  PHE244     -0.0003
    168  CE2        9.2560   -3.6480   -1.9510 C.ar  244  PHE244     -0.0003
    169  CZ         9.6580   -3.9330   -0.6680 C.ar  244  PHE244     -0.0000
@<TRIPOS>BOND
     1    10    11    2
     2    10     9    1
     3     8     9    1
     4     9    12    1
     5     3     4    2
     6     3     2    1
     7     2     5    1
     8     2     1    1
     9    12    14    1
    10    12    13    1
    11    13    15    1
    12     5     6    1
    13     1     7    1
    14     6     7    1
    15   137   136    2
    16   136   135    1
    17   139   138    1
    18   135   138    1
    19   135   134    1
    20   138   140    1
    21   154   152    1
    22   128   127    2
    23   133   132    1
    24   131   132    1
    25   131   130    1
    26   134   127   am
    27   127   126    1
    28   129   130    1
    29   129   126    1
    30   152   151    1
    31   126   125    1
    32   161   162    2
    33   161   160    1
    34   158   157    2
    35   160   159    1
    36   160   163    1
    37   151   153    1
    38   151   148    1
    39    23    21    1
    40    22    20    1
    41   150   149    2
    42    21    20    1
    43   157   159   am
    44   157   156    1
    45    20    17    1
    46   163   164    1
    47   149   148    1
    48   149   155   am
    49   166   164   ar
    50   166   168   ar
    51   148   147    1
    52   147   143   am
    53   155   156    1
    54   164   165   ar
    55   168   169   ar
    56   141   142    1
    57    69    67    1
    58    68    66    1
    59    17    18    1
    60    17    16    1
    61    19    18    2
    62   143   142    1
    63   143   144    2
    64    79    78    1
    65    79    80    1
    66   142   145    1
    67    18    24   am
    68   165   167   ar
    69   169   167   ar
    70    66    67    1
    71    66    63    1
    72    78    72   am
    73    24    25    1
    74    81    80    2
    75    80    82   am
    76   112   111    1
    77    72    73    2
    78    72    71    1
    79    25    26    1
    80   145   146    1
    81    65    64    2
    82    71    70    1
    83    71    74    1
    84    64    63    1
    85    64    70   am
    86    63    62    1
    87    82    83    1
    88   111   110    1
    89    90    91   ar
    90    90    88   ar
    91    91    89   ar
    92    76    75   ar
    93    75    77   ar
    94    75    74    1
    95    26    27    2
    96    26    28   am
    97    88    87   ar
    98    89    87   ar
    99    83    86    1
   100    83    84    1
   101    87    86    1
   102   110   109    1
   103    57    55    1
   104    28    29    1
   105    84    85    2
   106    56    54    1
   107    54    55    1
   108    54    51    1
   109   109   108    1
   110   124   123    1
   111    34    30   am
   112    34    35    1
   113    29    30    1
   114    29    32    1
   115    59    58    1
   116    59    60    1
   117    58    52   am
   118    33    32    1
   119    30    31    2
   120    35    36    1
   121   101    99   ar
   122   101   102   ar
   123    52    51    1
   124    52    53    2
   125    99    97   ar
   126    51    50    1
   127   108   105    1
   128   103   102    1
   129   123   121   ar
   130   123   122   ar
   131   102   100   ar
   132    50    40   am
   133    60    61    2
   134    97    96    1
   135    97    98   ar
   136   121   119   ar
   137    36    38   am
   138    36    37    2
   139    96    93    1
   140   100    98   ar
   141    38    39    1
   142   122   120   ar
   143   105   104    1
   144   105   106    1
   145   104    94   am
   146    40    39    1
   147    40    41    2
   148   119   118   ar
   149    39    42    1
   150    93    92    1
   151    93    94    1
   152    94    95    2
   153    42    43    1
   154   120   118   ar
   155   106   107    2
   156   106   113   am
   157   118   117    1
   158    45    43   ar
   159    45    47   ar
   160    43    44   ar
   161   113   114    1
   162   117   114    1
   163    47    48   ar
   164   114   115    1
   165    44    46   ar
   166    48    46   ar
   167    48    49    1
   168   115   116    2
