@<TRIPOS>MOLECULE
tmp/2ce2A01.pdb
 107 100 0 0 0
SMALL
GASTEIGER

@<TRIPOS>ATOM
      1  N         13.2000   41.2660   21.6770 N.3    17  SER17      -0.1217
      2  CA        12.5830   41.2860   22.9820 C.3    17  SER17       0.1889
      3  C         11.4450   42.2900   23.0090 C.2    17  SER17       0.2288
      4  O         10.3840   41.9860   23.5450 O.2    17  SER17      -0.2866
      5  CB        13.6020   41.5990   24.0770 C.3    17  SER17       0.2089
      6  OG        14.5680   40.5640   24.1950 O.3    17  SER17      -0.2183
      7  N          8.3890   40.7570   21.3860 N.3    20  THR20      -0.1203
      8  CA         7.8770   39.7230   22.2810 C.3    20  THR20       0.1994
      9  C          7.0590   40.3570   23.3940 C.2    20  THR20       0.2617
     10  O          5.9170   39.9770   23.6460 O.2    20  THR20      -0.2717
     11  CB         9.0510   38.8870   22.8520 C.3    20  THR20       0.1784
     12  OG1        9.7400   38.2540   21.7650 O.3    20  THR20      -0.2211
     13  CG2        8.5510   37.8070   23.7930 C.3    20  THR20       0.0376
     14  N          7.6700   41.3180   24.0680 N.am   21  ILE21      -0.1979
     15  CA         7.0550   41.9550   25.2190 C.3    21  ILE21       0.1595
     16  C          5.8730   42.8250   24.8710 C.2    21  ILE21       0.2287
     17  O          5.0170   43.0220   25.7480 O.2    21  ILE21      -0.2864
     18  CB         8.1060   42.7840   26.0230 C.3    21  ILE21       0.0276
     19  CG1        9.1660   41.8750   26.6350 C.3    21  ILE21       0.0022
     20  CG2        7.4650   43.6310   27.1320 C.3    21  ILE21       0.0022
     21  CD1       10.3540   42.6200   27.1480 C.3    21  ILE21       0.0001
     22  N          3.1320   40.2670   24.4500 N.3    24  ILE24      -0.1231
     23  CA         2.7750   39.6120   25.7130 C.3    24  ILE24       0.1692
     24  C          2.3100   40.5600   26.8230 C.2    24  ILE24       0.2591
     25  O          1.2790   40.3200   27.4720 O.2    24  ILE24      -0.2718
     26  CB         3.9470   38.7330   26.2080 C.3    24  ILE24       0.0266
     27  CG1        4.2310   37.6840   25.1250 C.3    24  ILE24       0.0019
     28  CG2        3.6370   38.1010   27.5640 C.3    24  ILE24       0.0020
     29  CD1        5.1540   36.5630   25.4860 C.3    24  ILE24       0.0001
     30  N          3.0790   41.6170   27.0530 N.am   25  GLN25      -0.1979
     31  CA         2.8100   42.5360   28.1410 C.3    25  GLN25       0.1601
     32  C          2.1100   43.8210   27.6860 C.2    25  GLN25       0.2287
     33  O          1.7930   44.6690   28.5330 O.2    25  GLN25      -0.2864
     34  CB         4.1120   42.8820   28.8880 C.3    25  GLN25       0.0394
     35  CG         4.9610   41.6880   29.3320 C.3    25  GLN25       0.0908
     36  CD         4.2760   40.7190   30.2840 C.2    25  GLN25       0.2608
     37  OE1        3.2620   41.0380   30.9070 O.2    25  GLN25      -0.2717
     38  NE2        4.8420   39.4940   30.3970 N.am   25  GLN25      -0.0878
     39  N          9.2210   48.3890   26.0820 N.3    29  VAL29      -0.1245
     40  CA        10.3850   48.5870   26.9400 C.3    29  VAL29       0.1561
     41  C         11.4780   49.3980   26.2190 C.2    29  VAL29       0.2260
     42  O         11.9330   49.0300   25.1210 O.2    29  VAL29      -0.2867
     43  CB        10.9450   47.2440   27.4430 C.3    29  VAL29       0.0252
     44  CG1        9.8610   46.4610   28.1780 C.3    29  VAL29       0.0019
     45  CG2       11.5120   46.4210   26.2970 C.3    29  VAL29       0.0019
     46  N         14.3740   49.6310   26.7840 N.3    31  GLU31      -0.1231
     47  CA        15.5870   48.8250   26.6990 C.3    31  GLU31       0.1699
     48  C         15.3880   47.5080   27.4460 C.2    31  GLU31       0.2592
     49  O         14.3640   47.2940   28.1040 O.2    31  GLU31      -0.2718
     50  CB        16.8050   49.5900   27.2310 C.3    31  GLU31       0.0402
     51  CG        16.6360   50.1910   28.6230 C.3    31  GLU31       0.1161
     52  CD        17.9030   50.8680   29.1360 C.2    31  GLU31       0.3649
     53  OE1       17.9780   51.1500   30.3510 O.co2  31  GLU31      -0.2457
     54  OE2       18.8310   51.1160   28.3380 O.co2  31  GLU31      -0.2457
     55  N         16.3790   46.6340   27.3430 N.am   32  CYS32      -0.1956
     56  CA        16.2460   45.2530   27.7860 C.3    32  CYS32       0.1843
     57  C         17.5890   44.6140   27.9350 C.2    32  CYS32       0.2625
     58  O         18.5310   44.9860   27.2360 O.2    32  CYS32      -0.2714
     59  CB        15.5160   44.5180   26.6720 C.3    32  CYS32       0.0997
     60  SG        14.5220   43.1570   27.1930 S.3    32  CYS32      -0.0797
     61  N         17.6970   43.6330   28.8240 N.am   33  ASP33      -0.1971
     62  CA        18.9320   42.8660   28.9370 C.3    33  ASP33       0.1709
     63  C         19.2140   42.1420   27.6160 C.2    33  ASP33       0.2293
     64  O         18.5290   41.1820   27.2660 O.2    33  ASP33      -0.2864
     65  CB        18.8480   41.8730   30.0980 C.3    33  ASP33       0.1436
     66  CG        20.2150   41.3880   30.5550 C.2    33  ASP33       0.3671
     67  OD1       20.3720   41.1520   31.7680 O.co2  33  ASP33      -0.2456
     68  OD2       21.1340   41.2390   29.7130 O.co2  33  ASP33      -0.2456
     69  N         19.6500   38.0600   27.5880 N.3    36  ILE36      -0.1245
     70  CA        18.7140   37.0820   28.1470 C.3    36  ILE36       0.1561
     71  C         17.8320   36.4180   27.0790 C.2    36  ILE36       0.2260
     72  O         17.3120   37.0860   26.1720 O.2    36  ILE36      -0.2867
     73  CB        17.8410   37.7080   29.2760 C.3    36  ILE36       0.0252
     74  CG1       18.7020   37.9950   30.5150 C.3    36  ILE36       0.0019
     75  CG2       16.7020   36.7690   29.6560 C.3    36  ILE36       0.0019
     76  CD1       18.0260   38.8540   31.5820 C.3    36  ILE36       0.0001
     77  N          8.2600   32.3500   26.6250 N.3    40  TYR40      -0.1227
     78  CA         7.1720   32.9720   27.3340 C.3    40  TYR40       0.1736
     79  C          5.8980   32.4650   26.7340 C.2    40  TYR40       0.2595
     80  O          5.8330   32.0860   25.5950 O.2    40  TYR40      -0.2718
     81  CB         7.2450   34.4820   27.2050 C.3    40  TYR40       0.0548
     82  CG         8.6120   34.9810   27.5700 C.ar   40  TYR40      -0.0200
     83  CD1        9.5380   35.3070   26.5870 C.ar   40  TYR40      -0.0009
     84  CD2        9.0140   35.0690   28.9030 C.ar   40  TYR40      -0.0009
     85  CE1       10.8280   35.7350   26.9240 C.ar   40  TYR40       0.0417
     86  CE2       10.3060   35.5100   29.2530 C.ar   40  TYR40       0.0417
     87  CZ        11.2000   35.8480   28.2640 C.ar   40  TYR40       0.1957
     88  OH        12.4670   36.2740   28.6290 O.3    40  TYR40      -0.2866
     89  N          4.8480   32.4470   27.5060 N.am   41  ARG41      -0.1980
     90  CA         3.6580   31.8990   26.9640 C.3    41  ARG41       0.1597
     91  C          2.6140   32.9760   27.0240 C.2    41  ARG41       0.2287
     92  O          2.6820   33.8560   27.8890 O.2    41  ARG41      -0.2864
     93  CB         3.3210   30.6130   27.7080 C.3    41  ARG41       0.0334
     94  CG         4.3040   29.4490   27.3360 C.3    41  ARG41       0.0492
     95  CD         4.6730   28.5850   28.5590 C.3    41  ARG41       0.2205
     96  NE         5.7030   27.5730   28.2530 N.pl3  41  ARG41      -0.0865
     97  CZ         7.0280   27.7770   28.3010 C.cat  41  ARG41       0.5346
     98  NH1        7.5420   28.9690   28.6310 N.pl3  41  ARG41       0.1354
     99  NH2        7.8630   26.7790   28.0020 N.pl3  41  ARG41       0.1354
    100  N         12.2990   33.9030   22.7750 N.3    57  ASP57      -0.1239
    101  CA        12.9770   35.1290   22.3990 C.3    57  ASP57       0.1674
    102  C         14.4560   34.8100   22.5280 C.2    57  ASP57       0.2266
    103  O         14.9590   34.6100   23.6390 O.2    57  ASP57      -0.2867
    104  CB        12.5180   36.2220   23.3700 C.3    57  ASP57       0.1410
    105  CG        13.2790   37.5130   23.2430 C.2    57  ASP57       0.3668
    106  OD1       13.8120   37.8140   22.1440 O.co2  57  ASP57      -0.2456
    107  OD2       13.2810   38.2510   24.2630 O.co2  57  ASP57      -0.2456
@<TRIPOS>BOND
     1     7     8    1
     2     1     2    1
     3    12    11    1
     4   106   105   ar
     5     8    11    1
     6     8     9    1
     7   101   102    1
     8   101   100    1
     9   101   104    1
    10   102   103    2
    11    11    13    1
    12     2     3    1
    13     2     5    1
    14     3     4    2
    15   105   104    1
    16   105   107   ar
    17     9    10    2
    18     9    14   am
    19    14    15    1
    20     5     6    1
    21    22    23    1
    22    16    15    1
    23    16    17    2
    24    42    41    2
    25    27    29    1
    26    27    26    1
    27    15    18    1
    28    80    79    2
    29    23    26    1
    30    23    24    1
    31    18    19    1
    32    18    20    1
    33    39    40    1
    34    72    71    2
    35    26    28    1
    36    41    40    1
    37    45    43    1
    38    83    85   ar
    39    83    82   ar
    40    77    78    1
    41    19    21    1
    42    59    60    1
    43    59    56    1
    44    47    46    1
    45    47    50    1
    46    47    48    1
    47    79    78    1
    48    79    89   am
    49    24    30   am
    50    24    25    2
    51    85    87   ar
    52    40    43    1
    53    90    91    1
    54    90    89    1
    55    90    93    1
    56    91    92    2
    57    30    31    1
    58    71    70    1
    59    81    78    1
    60    81    82    1
    61    50    51    1
    62    58    57    2
    63    64    63    2
    64    94    93    1
    65    94    95    1
    66    55    48   am
    67    55    56    1
    68    43    44    1
    69    48    49    2
    70    82    84   ar
    71    69    70    1
    72    63    62    1
    73    32    31    1
    74    32    33    2
    75    56    57    1
    76    57    61   am
    77    99    97    1
    78    31    34    1
    79    70    73    1
    80    96    97    2
    81    96    95    1
    82    87    88    1
    83    87    86   ar
    84    97    98    1
    85    54    52   ar
    86    51    52    1
    87    61    62    1
    88    34    35    1
    89    84    86   ar
    90    62    65    1
    91    52    53   ar
    92    73    75    1
    93    73    74    1
    94    35    36    1
    95    68    66   ar
    96    65    66    1
    97    36    38   am
    98    36    37    2
    99    74    76    1
   100    66    67   ar
