@<TRIPOS>MOLECULE
tmp/2ce8A00.pdb
 159 145 0 0 0
SMALL
GASTEIGER

@<TRIPOS>ATOM
      1  N        -23.4180  -14.3200   49.0400 N.3    53  VAL53      -0.1245
      2  CA       -22.3080  -13.4370   48.6630 C.3    53  VAL53       0.1561
      3  C        -22.8640  -11.9760   48.5730 C.2    53  VAL53       0.2260
      4  O        -23.9130  -11.7320   47.9300 O.2    53  VAL53      -0.2867
      5  CB       -21.5880  -13.8990   47.3520 C.3    53  VAL53       0.0252
      6  CG1      -20.4900  -12.9460   46.9940 C.3    53  VAL53       0.0019
      7  CG2      -20.9110  -15.2990   47.5560 C.3    53  VAL53       0.0019
      8  N        -22.7230   -8.6660   47.0940 N.3    55  CYS55      -0.1235
      9  CA       -22.2650   -7.9970   45.8900 C.3    55  CYS55       0.1677
     10  C        -22.4640   -6.4990   45.9180 C.2    55  CYS55       0.2270
     11  O        -21.9340   -5.7790   45.0580 O.2    55  CYS55      -0.2867
     12  CB       -23.0200   -8.5590   44.6980 C.3    55  CYS55       0.0956
     13  SG       -22.8820  -10.3760   44.5670 S.3    55  CYS55      -0.0801
     14  N        -28.5190  -12.3900   41.6510 N.3    99  TYR99      -0.1241
     15  CA       -27.7950  -11.4290   42.4920 C.3    99  TYR99       0.1605
     16  C        -28.1760   -9.9740   42.2740 C.2    99  TYR99       0.2264
     17  O        -28.3000   -9.5260   41.1400 O.2    99  TYR99      -0.2867
     18  CB       -26.2830  -11.5910   42.3350 C.3    99  TYR99       0.0534
     19  CG       -25.8240  -12.8590   43.0150 C.ar   99  TYR99      -0.0201
     20  CD1      -25.7330  -12.9170   44.4090 C.ar   99  TYR99      -0.0009
     21  CD2      -25.5690  -14.0140   42.2820 C.ar   99  TYR99      -0.0009
     22  CE1      -25.3420  -14.0790   45.0750 C.ar   99  TYR99       0.0417
     23  CE2      -25.1500  -15.1980   42.9350 C.ar   99  TYR99       0.0417
     24  CZ       -25.0560  -15.2140   44.3310 C.ar   99  TYR99       0.1957
     25  OH       -24.6860  -16.3550   45.0130 O.3    99  TYR99      -0.2866
     26  N        -26.7370   -6.3540   42.3160 N.3   101  ARG101     -0.1245
     27  CA       -25.4130   -5.8660   41.9130 C.3   101  ARG101      0.1563
     28  C        -25.1040   -4.4690   42.4040 C.2   101  ARG101      0.2260
     29  O        -23.9340   -4.0780   42.4710 O.2   101  ARG101     -0.2867
     30  CB       -25.2700   -5.9100   40.3800 C.3   101  ARG101      0.0307
     31  CG       -25.4800   -7.3380   39.8040 C.3   101  ARG101      0.0489
     32  CD       -24.3200   -8.2430   40.1970 C.3   101  ARG101      0.2205
     33  NE       -23.0540   -7.6960   39.7200 N.pl3 101  ARG101     -0.0865
     34  CZ       -22.4230   -8.0480   38.5970 C.cat 101  ARG101      0.5346
     35  NH1      -22.8710   -9.0270   37.8250 N.pl3 101  ARG101      0.1354
     36  NH2      -21.2950   -7.4320   38.2680 N.pl3 101  ARG101      0.1354
     37  N        -29.0210   -8.6690   38.5530 N.3   117  GLU117     -0.1245
     38  CA       -29.0620   -9.5640   37.4230 C.3   117  GLU117      0.1567
     39  C        -30.5220   -9.8580   36.9900 C.2   117  GLU117      0.2260
     40  O        -31.0130  -10.9950   37.0880 O.2   117  GLU117     -0.2867
     41  CB       -28.2700  -10.8190   37.7640 C.3   117  GLU117      0.0388
     42  CG       -26.7780  -10.4930   37.8660 C.3   117  GLU117      0.1160
     43  CD       -25.9050  -11.6350   38.3440 C.2   117  GLU117      0.3649
     44  OE1      -24.6550  -11.4220   38.3540 O.co2 117  GLU117     -0.2457
     45  OE2      -26.4620  -12.7060   38.7360 O.co2 117  GLU117     -0.2457
     46  N        -30.6570   -7.1100   29.9030 N.3   142  PRO142     -0.2116
     47  CA       -30.7560   -8.2490   30.8060 C.3   142  PRO142      0.1372
     48  C        -30.3370   -7.9940   32.2520 C.2   142  PRO142      0.2244
     49  O        -30.9010   -8.6130   33.1510 O.2   142  PRO142     -0.2868
     50  CB       -29.7950   -9.2840   30.1770 C.3   142  PRO142      0.0268
     51  CG       -29.7320   -8.9070   28.7560 C.3   142  PRO142      0.0207
     52  CD       -29.7750   -7.4170   28.7580 C.3   142  PRO142      0.0892
     53  N        -25.4140   -3.6210   36.3260 N.3   145  TYR145     -0.1241
     54  CA       -24.1610   -3.8870   37.0800 C.3   145  TYR145      0.1605
     55  C        -23.7730   -2.7880   38.0730 C.2   145  TYR145      0.2264
     56  O        -22.9720   -3.0260   38.9910 O.2   145  TYR145     -0.2867
     57  CB       -23.0190   -4.0830   36.1030 C.3   145  TYR145      0.0534
     58  CG       -23.0810   -5.3210   35.1910 C.ar  145  TYR145     -0.0201
     59  CD1      -22.3730   -5.3280   33.9910 C.ar  145  TYR145     -0.0009
     60  CD2      -23.7870   -6.4890   35.5550 C.ar  145  TYR145     -0.0009
     61  CE1      -22.3280   -6.4580   33.1700 C.ar  145  TYR145      0.0417
     62  CE2      -23.7690   -7.6640   34.7110 C.ar  145  TYR145      0.0417
     63  CZ       -23.0480   -7.6110   33.5050 C.ar  145  TYR145      0.1957
     64  OH       -22.9860   -8.6890   32.6250 O.3   145  TYR145     -0.2866
     65  N        -25.7840   -4.4010   31.0970 N.3   161  SER161     -0.1202
     66  CA       -24.9060   -5.5040   30.7050 C.3   161  SER161      0.2020
     67  C        -24.6160   -5.4930   29.1870 C.2   161  SER161      0.2618
     68  O        -23.6990   -6.1410   28.7120 O.2   161  SER161     -0.2717
     69  CB       -25.5970   -6.8110   31.0870 C.3   161  SER161      0.2103
     70  OG       -26.8550   -6.9070   30.4330 O.3   161  SER161     -0.2182
     71  N        -25.3940   -4.7370   28.4340 N.am  162  ASP162     -0.1973
     72  CA       -25.1300   -4.5870   27.0030 C.3   162  ASP162      0.1709
     73  C        -24.2020   -3.3890   26.7130 C.2   162  ASP162      0.2293
     74  O        -23.9140   -3.0950   25.5780 O.2   162  ASP162     -0.2864
     75  CB       -26.4400   -4.5260   26.2150 C.3   162  ASP162      0.1436
     76  CG       -27.3520   -3.3920   26.6620 C.2   162  ASP162      0.3671
     77  OD1      -26.8560   -2.3860   27.2450 O.co2 162  ASP162     -0.2456
     78  OD2      -28.5790   -3.5150   26.4380 O.co2 162  ASP162     -0.2456
     79  N        -19.1810   -3.7200   25.4370 N.3   184  ASP184     -0.1225
     80  CA       -19.4200   -4.8490   26.3400 C.3   184  ASP184      0.1805
     81  C        -20.0060   -4.1500   27.5870 C.2   184  ASP184      0.2598
     82  O        -20.1150   -2.9130   27.5880 O.2   184  ASP184     -0.2718
     83  CB       -18.1120   -5.6000   26.6490 C.3   184  ASP184      0.1424
     84  CG       -18.3510   -7.0410   27.1400 C.2   184  ASP184      0.3668
     85  OD1      -19.4380   -7.3400   27.7110 O.co2 184  ASP184     -0.2456
     86  OD2      -17.4520   -7.8880   26.9320 O.co2 184  ASP184     -0.2456
     87  N        -20.3240   -4.9170   28.6330 N.am  185  GLY185     -0.1957
     88  CA       -21.0540   -4.4140   29.7790 C.3   185  GLY185      0.1869
     89  C        -20.4000   -3.2150   30.4570 C.2   185  GLY185      0.2309
     90  O        -19.1830   -3.1530   30.5730 O.2   185  GLY185     -0.2863
     91  N        -19.6440   -1.6010   33.7980 N.3   187  SER187     -0.1217
     92  CA       -19.4420   -2.2530   35.0770 C.3   187  SER187      0.1889
     93  C        -19.4400   -1.2880   36.2770 C.2   187  SER187      0.2288
     94  O        -19.6710   -1.6880   37.4200 O.2   187  SER187     -0.2866
     95  CB       -18.1170   -3.0590   35.0210 C.3   187  SER187      0.2089
     96  OG       -17.0210   -2.1750   34.8100 O.3   187  SER187     -0.2183
     97  N        -16.2550   -3.4380   30.4300 N.3   203  LEU203     -0.1245
     98  CA       -15.7230   -4.7340   30.2250 C.3   203  LEU203      0.1561
     99  C        -15.1740   -4.7740   28.8020 C.2   203  LEU203      0.2260
    100  O        -14.5390   -5.7600   28.4260 O.2   203  LEU203     -0.2867
    101  CB       -16.8130   -5.7890   30.4310 C.3   203  LEU203      0.0270
    102  CG       -17.4700   -5.9270   31.8150 C.3   203  LEU203      0.0019
    103  CD1      -18.5330   -7.0750   31.7680 C.3   203  LEU203      0.0001
    104  CD2      -16.3990   -6.1630   32.9120 C.3   203  LEU203      0.0001
    105  N         -9.9360   -5.2860   31.5730 N.3   226  GLN226     -0.1245
    106  CA       -11.2640   -4.8270   31.8770 C.3   226  GLN226      0.1566
    107  C        -11.2930   -3.9710   33.1240 C.2   226  GLN226      0.2260
    108  O        -10.5440   -4.2130   34.0450 O.2   226  GLN226     -0.2867
    109  CB       -12.1910   -5.9950   32.0980 C.3   226  GLN226      0.0367
    110  CG       -12.3290   -6.9230   30.9010 C.3   226  GLN226      0.0905
    111  CD       -13.1310   -8.1500   31.2620 C.2   226  GLN226      0.2608
    112  OE1      -12.7040   -8.9900   32.0570 O.2   226  GLN226     -0.2717
    113  NE2      -14.2850   -8.2740   30.6660 N.am  226  GLN226     -0.0878
    114  N        -13.3990   -2.8920   36.4090 N.3   228  PHE228     -0.1241
    115  CA       -14.4620   -3.3410   37.3270 C.3   228  PHE228      0.1605
    116  C        -15.0260   -2.2650   38.2530 C.2   228  PHE228      0.2264
    117  O        -16.1690   -2.3590   38.7060 O.2   228  PHE228     -0.2867
    118  CB       -13.9670   -4.5260   38.1530 C.3   228  PHE228      0.0534
    119  CG       -13.7400   -5.7730   37.3240 C.ar  228  PHE228     -0.0203
    120  CD1      -12.6720   -6.6040   37.5550 C.ar  228  PHE228     -0.0042
    121  CD2      -14.5760   -6.0800   36.2850 C.ar  228  PHE228     -0.0042
    122  CE1      -12.4670   -7.7640   36.7580 C.ar  228  PHE228     -0.0003
    123  CE2      -14.3660   -7.2360   35.4890 C.ar  228  PHE228     -0.0003
    124  CZ       -13.3030   -8.0620   35.7110 C.ar  228  PHE228     -0.0000
    125  N        -12.2180   -5.2810   42.4980 N.3   269  LEU269     -0.1245
    126  CA       -13.6640   -5.4130   42.3140 C.3   269  LEU269      0.1561
    127  C        -14.5000   -4.1910   42.6610 C.2   269  LEU269      0.2260
    128  O        -15.6210   -3.9950   42.1070 O.2   269  LEU269     -0.2867
    129  CB       -14.1440   -6.6280   43.1320 C.3   269  LEU269      0.0270
    130  CG       -13.5090   -7.9750   42.6950 C.3   269  LEU269      0.0019
    131  CD1      -14.0800   -9.0970   43.5590 C.3   269  LEU269      0.0001
    132  CD2      -13.8180   -8.2020   41.1670 C.3   269  LEU269      0.0001
    133  N        -10.4990   -9.2990   44.7410 N.3   285  LYS285     -0.1245
    134  CA       -10.6720  -10.7500   44.7090 C.3   285  LYS285      0.1561
    135  C         -9.6000  -11.4690   45.5720 C.2   285  LYS285      0.2260
    136  O         -9.7970  -12.6110   46.0070 O.2   285  LYS285     -0.2867
    137  CB       -10.5510  -11.1770   43.2610 C.3   285  LYS285      0.0271
    138  CG       -11.3090  -12.4200   42.8410 C.3   285  LYS285      0.0035
    139  CD       -10.9930  -12.6440   41.3700 C.3   285  LYS285      0.0206
    140  CE       -11.9540  -13.5790   40.6880 C.3   285  LYS285      0.1093
    141  NZ       -11.6280  -15.0340   40.9460 N.3   285  LYS285     -0.1314
    142  N        -12.8140  -13.1310   49.0470 N.3   308  SER308     -0.1217
    143  CA       -12.9180  -12.0320   48.0730 C.3   308  SER308      0.1889
    144  C        -13.7540  -10.8940   48.6060 C.2   308  SER308      0.2288
    145  O        -14.7830  -11.1420   49.1880 O.2   308  SER308     -0.2866
    146  CB       -13.6330  -12.5300   46.8070 C.3   308  SER308      0.2089
    147  OG       -12.7220  -13.3420   46.0840 O.3   308  SER308     -0.2183
    148  N        -16.0710   -8.0450   47.4410 N.3   310  LEU310     -0.1245
    149  CA       -16.7930   -7.7050   46.2160 C.3   310  LEU310      0.1561
    150  C        -17.3020   -6.2840   46.1030 C.2   310  LEU310      0.2260
    151  O        -17.5770   -5.8000   44.9920 O.2   310  LEU310     -0.2867
    152  CB       -17.9720   -8.6670   45.9830 C.3   310  LEU310      0.0270
    153  CG       -17.4780  -10.0420   45.5040 C.3   310  LEU310      0.0019
    154  CD1      -17.4370  -10.8960   46.6880 C.3   310  LEU310      0.0001
    155  CD2      -18.4440  -10.6260   44.4370 C.3   310  LEU310      0.0001
    156  N        -17.2290  -12.5600   49.6840 N.3   326  GLY326     -0.1225
    157  CA       -17.5070  -13.8700   49.0610 C.3   326  GLY326      0.1811
    158  C        -17.7480  -14.9270   50.1310 C.2   326  GLY326      0.2280
    159  O        -18.2240  -16.0240   49.8210 O.2   326  GLY326     -0.2866
@<TRIPOS>BOND
     1    79    80    1
     2    74    73    2
     3    75    76    1
     4    75    72    1
     5    80    83    1
     6    80    81    1
     7    78    76   ar
     8    83    84    1
     9    76    77   ar
    10    73    72    1
    11    86    84   ar
    12    72    71    1
    13    84    85   ar
    14    81    82    2
    15    81    87   am
    16   100    99    2
    17    71    67   am
    18    87    88    1
    19    68    67    2
    20    51    52    1
    21    51    50    1
    22    52    46    1
    23    99    98    1
    24    67    66    1
    25    88    89    1
    26    46    47    1
    27    50    47    1
    28    98    97    1
    29    98   101    1
    30   101   102    1
    31    70    69    1
    32    89    90    2
    33   113   111   am
    34    66    69    1
    35    66    65    1
    36    47    48    1
    37   110   111    1
    38   110   109    1
    39   111   112    2
    40   105   106    1
    41   103   102    1
    42   102   104    1
    43   106   109    1
    44   106   107    1
    45    48    49    2
    46    64    63    1
    47   107   108    2
    48    61    63   ar
    49    61    59   ar
    50    63    62   ar
    51    91    92    1
    52    59    58   ar
    53    62    60   ar
    54    96    95    1
    55    95    92    1
    56    92    93    1
    57    58    60   ar
    58    58    57    1
    59   123   124   ar
    60   123   121   ar
    61   124   122   ar
    62    57    54    1
    63    93    94    2
    64   121   119   ar
    65    53    54    1
    66   114   115    1
    67   122   120   ar
    68    39    40    2
    69    39    38    1
    70    54    55    1
    71   119   120   ar
    72   119   118    1
    73   115   118    1
    74   115   116    1
    75    38    41    1
    76    38    37    1
    77    41    42    1
    78    35    34    1
    79    42    43    1
    80    55    56    2
    81   116   117    2
    82    36    34    1
    83    43    44   ar
    84    43    45   ar
    85    34    33    2
    86    33    32    1
    87    31    32    1
    88    31    30    1
    89    30    27    1
    90   140   141    1
    91   140   139    1
    92    17    16    2
    93   132   130    1
    94   139   138    1
    95    14    15    1
    96    27    26    1
    97    27    28    1
    98   128   127    2
    99    16    15    1
   100    21    23   ar
   101    21    19   ar
   102   126   125    1
   103   126   127    1
   104   126   129    1
   105    18    15    1
   106    18    19    1
   107    28    29    2
   108   130   129    1
   109   130   131    1
   110   138   137    1
   111    23    24   ar
   112    19    20   ar
   113   137   134    1
   114    24    25    1
   115    24    22   ar
   116    20    22   ar
   117   155   153    1
   118    13    12    1
   119    12     9    1
   120   134   133    1
   121   134   135    1
   122   151   150    2
   123    11    10    2
   124   153   152    1
   125   153   154    1
   126   135   136    2
   127     9    10    1
   128     9     8    1
   129   152   149    1
   130   147   146    1
   131   150   149    1
   132   149   148    1
   133   146   143    1
   134     6     5    1
   135     5     7    1
   136     5     2    1
   137     4     3    2
   138   143   144    1
   139   143   142    1
   140     3     2    1
   141   144   145    2
   142     2     1    1
   143   157   156    1
   144   157   158    1
   145   159   158    2
