@<TRIPOS>MOLECULE
tmp/2ce9A00.pdb
 175 160 0 0 0
SMALL
GASTEIGER

@<TRIPOS>ATOM
      1  N        -23.9590  -14.7300   49.5000 N.3    53  VAL53      -0.1245
      2  CA       -22.8760  -13.7810   49.1960 C.3    53  VAL53       0.1561
      3  C        -23.4460  -12.3760   49.0460 C.2    53  VAL53       0.2260
      4  O        -24.5040  -12.2150   48.4540 O.2    53  VAL53      -0.2867
      5  CB       -21.7300  -14.2160   48.1180 C.3    53  VAL53       0.0252
      6  CG1      -21.7010  -15.6990   47.6950 C.3    53  VAL53       0.0019
      7  CG2      -21.5890  -13.2610   46.9640 C.3    53  VAL53       0.0019
      8  N        -23.4440   -8.9840   47.5770 N.3    55  CYS55      -0.1235
      9  CA       -22.9680   -8.3080   46.4050 C.3    55  CYS55       0.1677
     10  C        -23.0960   -6.8100   46.5080 C.2    55  CYS55       0.2270
     11  O        -22.5010   -6.0830   45.6860 O.2    55  CYS55      -0.2867
     12  CB       -23.7650   -8.7540   45.1460 C.3    55  CYS55       0.0956
     13  SG       -23.6210  -10.4980   44.7610 S.3    55  CYS55      -0.0801
     14  N        -29.0530  -13.0010   47.7850 N.3    71  LYS71      -0.1245
     15  CA       -29.8880  -13.6820   46.8050 C.3    71  LYS71       0.1561
     16  C        -31.3430  -13.3900   47.1030 C.2    71  LYS71       0.2260
     17  O        -31.8090  -13.6010   48.2310 O.2    71  LYS71      -0.2867
     18  CB       -29.7180  -15.1950   46.9080 C.3    71  LYS71       0.0271
     19  CG       -28.9910  -15.8380   45.8060 C.3    71  LYS71       0.0035
     20  CD       -29.1950  -17.3780   45.8150 C.3    71  LYS71       0.0206
     21  CE       -28.1190  -17.9770   44.8840 C.3    71  LYS71       0.1093
     22  NZ       -27.8000  -19.4970   44.9900 N.3    71  LYS71      -0.1314
     23  N        -33.3450  -17.1340   43.2420 N.3    97  ASP97      -0.1225
     24  CA       -32.1050  -17.7040   42.6670 C.3    97  ASP97       0.1805
     25  C        -31.1640  -16.6110   42.1260 C.2    97  ASP97       0.2598
     26  O        -30.0150  -16.8930   41.7790 O.2    97  ASP97      -0.2718
     27  CB       -32.4260  -18.6760   41.5110 C.3    97  ASP97       0.1424
     28  CG       -33.2840  -19.8930   41.9530 C.2    97  ASP97       0.3668
     29  OD1      -33.1610  -20.3610   43.1250 O.co2  97  ASP97      -0.2456
     30  OD2      -34.0860  -20.3890   41.1130 O.co2  97  ASP97      -0.2456
     31  N        -31.6750  -15.3780   42.0270 N.am   98  ASN98      -0.1960
     32  CA       -30.9390  -14.2520   41.4260 C.3    98  ASN98       0.1819
     33  C        -30.4190  -13.2350   42.4330 C.2    98  ASN98       0.2621
     34  O        -31.0600  -12.9590   43.4520 O.2    98  ASN98      -0.2715
     35  CB       -31.8120  -13.5400   40.4120 C.3    98  ASN98       0.1195
     36  CG       -32.0210  -14.3610   39.1450 C.2    98  ASN98       0.2630
     37  OD1      -31.1090  -15.0860   38.6700 O.2    98  ASN98      -0.2716
     38  ND2      -33.1980  -14.2190   38.5700 N.am   98  ASN98      -0.0877
     39  N        -29.2700  -12.6620   42.1240 N.am   99  TYR99      -0.1974
     40  CA       -28.6570  -11.7640   43.0500 C.3    99  TYR99       0.1639
     41  C        -29.0820  -10.3030   42.8570 C.2    99  TYR99       0.2290
     42  O        -29.1520   -9.7870   41.7500 O.2    99  TYR99      -0.2864
     43  CB       -27.1280  -11.8590   43.0140 C.3    99  TYR99       0.0560
     44  CG       -26.5640  -13.1000   43.6520 C.ar   99  TYR99      -0.0198
     45  CD1      -26.2320  -13.1120   45.0070 C.ar   99  TYR99      -0.0009
     46  CD2      -26.3980  -14.2800   42.9130 C.ar   99  TYR99      -0.0009
     47  CE1      -25.7020  -14.2480   45.6380 C.ar   99  TYR99       0.0417
     48  CE2      -25.8700  -15.4190   43.5010 C.ar   99  TYR99       0.0417
     49  CZ       -25.5100  -15.3920   44.8640 C.ar   99  TYR99       0.1957
     50  OH       -25.0020  -16.5170   45.4640 O.3    99  TYR99      -0.2866
     51  N        -27.5690   -6.8550   42.9090 N.3   101  ARG101     -0.1245
     52  CA       -26.2210   -6.3990   42.5450 C.3   101  ARG101      0.1563
     53  C        -25.8750   -4.9800   43.0170 C.2   101  ARG101      0.2260
     54  O        -24.7060   -4.6300   43.1390 O.2   101  ARG101     -0.2867
     55  CB       -25.9920   -6.5740   41.0370 C.3   101  ARG101      0.0307
     56  CG       -26.3460   -7.9670   40.5440 C.3   101  ARG101      0.0489
     57  CD       -25.3210   -8.9300   41.0830 C.3   101  ARG101      0.2205
     58  NE       -24.0460   -8.5720   40.5140 N.pl3 101  ARG101     -0.0865
     59  CZ       -23.5160   -9.1260   39.4240 C.cat 101  ARG101      0.5346
     60  NH1      -24.1270  -10.1510   38.8000 N.pl3 101  ARG101      0.1354
     61  NH2      -22.3440   -8.6610   38.9800 N.pl3 101  ARG101      0.1354
     62  N        -29.8180   -9.0850   39.0670 N.3   117  GLU117     -0.1245
     63  CA       -29.9290  -10.0020   37.9600 C.3   117  GLU117      0.1567
     64  C        -31.4020  -10.2170   37.5910 C.2   117  GLU117      0.2260
     65  O        -31.9270  -11.3230   37.7150 O.2   117  GLU117     -0.2867
     66  CB       -29.2370  -11.3300   38.3560 C.3   117  GLU117      0.0388
     67  CG       -27.7430  -11.1390   38.5810 C.3   117  GLU117      0.1160
     68  CD       -27.0940  -12.3050   39.2710 C.2   117  GLU117      0.3649
     69  OE1      -27.8220  -13.2320   39.6400 O.co2 117  GLU117     -0.2457
     70  OE2      -25.8590  -12.2930   39.4390 O.co2 117  GLU117     -0.2457
     71  N        -31.5110   -7.3840   30.5220 N.3   142  PRO142     -0.2102
     72  CA       -31.6990   -8.5040   31.4480 C.3   142  PRO142      0.1504
     73  C        -31.2320   -8.2670   32.8680 C.2   142  PRO142      0.2575
     74  O        -31.8620   -8.7840   33.7530 O.2   142  PRO142     -0.2718
     75  CB       -30.7940   -9.6120   30.8560 C.3   142  PRO142      0.0282
     76  CG       -30.6140   -9.2750   29.4650 C.3   142  PRO142      0.0208
     77  CD       -30.6030   -7.7650   29.4210 C.3   142  PRO142      0.0893
     78  N        -30.1260   -7.5360   33.0840 N.am  143  ALA143     -0.1980
     79  CA       -29.6030   -7.2920   34.4530 C.3   143  ALA143      0.1597
     80  C        -29.1440   -5.8520   34.6340 C.2   143  ALA143      0.2287
     81  O        -28.7370   -5.1820   33.6730 O.2   143  ALA143     -0.2864
     82  CB       -28.4230   -8.2870   34.8120 C.3   143  ALA143      0.0319
     83  N        -26.0730   -3.9990   36.8560 N.3   145  TYR145     -0.1241
     84  CA       -24.8540   -4.3560   37.6030 C.3   145  TYR145      0.1605
     85  C        -24.4010   -3.3150   38.6180 C.2   145  TYR145      0.2264
     86  O        -23.5960   -3.6000   39.5060 O.2   145  TYR145     -0.2867
     87  CB       -23.6770   -4.7010   36.6840 C.3   145  TYR145      0.0534
     88  CG       -23.8190   -5.9160   35.7840 C.ar  145  TYR145     -0.0201
     89  CD1      -24.4600   -7.0940   36.2130 C.ar  145  TYR145     -0.0009
     90  CD2      -23.2530   -5.9000   34.5090 C.ar  145  TYR145     -0.0009
     91  CE1      -24.5370   -8.2360   35.3640 C.ar  145  TYR145      0.0417
     92  CE2      -23.3310   -7.0120   33.6760 C.ar  145  TYR145      0.0417
     93  CZ       -23.9760   -8.1680   34.1070 C.ar  145  TYR145      0.1957
     94  OH       -24.0220   -9.2180   33.2140 O.3   145  TYR145     -0.2866
     95  N        -26.5200   -4.8270   31.6500 N.3   161  SER161     -0.1217
     96  CA       -25.7270   -5.9670   31.2430 C.3   161  SER161      0.1889
     97  C        -25.3730   -5.9600   29.7530 C.2   161  SER161      0.2288
     98  O        -24.4500   -6.6710   29.3250 O.2   161  SER161     -0.2866
     99  CB       -26.4480   -7.2620   31.5990 C.3   161  SER161      0.2089
    100  OG       -27.7410   -7.2970   31.0290 O.3   161  SER161     -0.2183
    101  N        -20.1840   -2.1430   34.3140 N.3   187  SER187     -0.1217
    102  CA       -19.9490   -2.8310   35.5930 C.3   187  SER187      0.1889
    103  C        -19.9870   -1.8770   36.8130 C.2   187  SER187      0.2288
    104  O        -20.1770   -2.3170   37.9610 O.2   187  SER187     -0.2866
    105  CB       -18.6020   -3.5450   35.4940 C.3   187  SER187      0.2089
    106  OG       -17.5790   -2.5740   35.3270 O.3   187  SER187     -0.2183
    107  N        -16.9350   -3.9690   30.9360 N.3   203  LEU203     -0.1245
    108  CA       -16.2950   -5.2240   30.6860 C.3   203  LEU203      0.1561
    109  C        -15.6870   -5.2610   29.2860 C.2   203  LEU203      0.2260
    110  O        -15.0930   -6.2850   28.9000 O.2   203  LEU203     -0.2867
    111  CB       -17.3250   -6.3460   30.8260 C.3   203  LEU203      0.0270
    112  CG       -17.9780   -6.4150   32.1960 C.3   203  LEU203      0.0019
    113  CD1      -18.9220   -7.6210   32.1560 C.3   203  LEU203      0.0001
    114  CD2      -16.8880   -6.4960   33.3320 C.3   203  LEU203      0.0001
    115  N        -10.4200   -5.5720   32.0670 N.3   226  GLN226     -0.1245
    116  CA       -11.7710   -5.2030   32.3450 C.3   226  GLN226      0.1566
    117  C        -11.7980   -4.3030   33.5690 C.2   226  GLN226      0.2260
    118  O        -10.9760   -4.4430   34.4440 O.2   226  GLN226     -0.2867
    119  CB       -12.5600   -6.4780   32.6070 C.3   226  GLN226      0.0367
    120  CG       -12.6890   -7.3280   31.3400 C.3   226  GLN226      0.0905
    121  CD       -13.5770   -8.5050   31.5380 C.2   226  GLN226      0.2608
    122  OE1      -13.5740   -9.0990   32.5950 O.2   226  GLN226     -0.2717
    123  NE2      -14.3700   -8.8460   30.5260 N.am  226  GLN226     -0.0878
    124  N        -13.8880   -3.2290   36.8340 N.3   228  PHE228     -0.1241
    125  CA       -14.9150   -3.7110   37.7720 C.3   228  PHE228      0.1605
    126  C        -15.4730   -2.6490   38.7140 C.2   228  PHE228      0.2264
    127  O        -16.6300   -2.7640   39.1620 O.2   228  PHE228     -0.2867
    128  CB       -14.3670   -4.8590   38.6270 C.3   228  PHE228      0.0534
    129  CG       -14.1340   -6.1650   37.8580 C.ar  228  PHE228     -0.0203
    130  CD1      -14.5840   -6.3310   36.5500 C.ar  228  PHE228     -0.0042
    131  CD2      -13.5430   -7.2270   38.4740 C.ar  228  PHE228     -0.0042
    132  CE1      -14.3790   -7.5470   35.8320 C.ar  228  PHE228     -0.0003
    133  CE2      -13.3860   -8.4820   37.7820 C.ar  228  PHE228     -0.0003
    134  CZ       -13.8060   -8.6090   36.4440 C.ar  228  PHE228     -0.0000
    135  N         -8.6200   -9.4510   41.3100 N.3   267  CYS267     -0.1235
    136  CA        -9.5880   -8.4470   40.8720 C.3   267  CYS267      0.1677
    137  C         -9.9590   -7.4560   41.9600 C.2   267  CYS267      0.2270
    138  O        -10.2950   -7.8430   43.0700 O.2   267  CYS267     -0.2867
    139  CB       -10.9140   -9.1370   40.4200 C.3   267  CYS267      0.0956
    140  SG       -10.6520  -10.5560   39.3100 S.3   267  CYS267     -0.0801
    141  N        -12.7480   -5.6240   43.0750 N.3   269  LEU269     -0.1245
    142  CA       -14.1800   -5.7870   42.9460 C.3   269  LEU269      0.1561
    143  C        -15.0010   -4.5150   43.2400 C.2   269  LEU269      0.2260
    144  O        -16.0650   -4.2820   42.6330 O.2   269  LEU269     -0.2867
    145  CB       -14.6150   -6.9630   43.8580 C.3   269  LEU269      0.0270
    146  CG       -14.1060   -8.3260   43.4720 C.3   269  LEU269      0.0019
    147  CD1      -14.6410   -9.4410   44.3980 C.3   269  LEU269      0.0001
    148  CD2      -14.4540   -8.6480   41.9750 C.3   269  LEU269      0.0001
    149  N        -10.9060   -9.5740   45.3280 N.3   285  LYS285     -0.1245
    150  CA       -11.1660  -10.9940   45.3340 C.3   285  LYS285      0.1561
    151  C        -10.0860  -11.7430   46.1300 C.2   285  LYS285      0.2260
    152  O        -10.2490  -12.9310   46.4480 O.2   285  LYS285     -0.2867
    153  CB       -11.1530  -11.4740   43.8960 C.3   285  LYS285      0.0271
    154  CG       -11.8470  -12.8410   43.6700 C.3   285  LYS285      0.0035
    155  CD       -12.0740  -13.0710   42.1670 C.3   285  LYS285      0.0206
    156  CE       -12.3000  -14.5910   41.8700 C.3   285  LYS285      0.1093
    157  NZ       -13.0870  -14.8010   40.5990 N.3   285  LYS285     -0.1314
    158  N        -13.3730  -13.3580   49.6550 N.3   308  SER308     -0.1217
    159  CA       -13.4040  -12.2360   48.7280 C.3   308  SER308      0.1889
    160  C        -14.2780  -11.0960   49.2220 C.2   308  SER308      0.2288
    161  O        -15.2680  -11.3330   49.9100 O.2   308  SER308     -0.2866
    162  CB       -13.9010  -12.7270   47.3760 C.3   308  SER308      0.2089
    163  OG       -15.1680  -13.3260   47.5450 O.3   308  SER308     -0.2183
    164  N        -16.5330   -8.2580   47.9790 N.3   310  LEU310     -0.1245
    165  CA       -17.3200   -7.9170   46.7680 C.3   310  LEU310      0.1561
    166  C        -17.7860   -6.4930   46.7160 C.2   310  LEU310      0.2260
    167  O        -18.0550   -5.9850   45.6350 O.2   310  LEU310     -0.2867
    168  CB       -18.5880   -8.7880   46.7420 C.3   310  LEU310      0.0270
    169  CG       -18.4140  -10.1440   46.0710 C.3   310  LEU310      0.0019
    170  CD1      -17.6370  -11.1350   46.8890 C.3   310  LEU310      0.0001
    171  CD2      -19.7570  -10.6890   45.7460 C.3   310  LEU310      0.0001
    172  N        -17.7300  -12.8020   50.1770 N.3   326  GLY326     -0.1225
    173  CA       -17.9670  -14.1180   49.5520 C.3   326  GLY326      0.1811
    174  C        -18.2670  -15.1580   50.6190 C.2   326  GLY326      0.2280
    175  O        -18.7550  -16.2240   50.2830 O.2   326  GLY326     -0.2866
@<TRIPOS>BOND
     1   110   109    2
     2   109   108    1
     3    98    97    2
     4    77    76    1
     5    77    71    1
     6    76    75    1
     7    97    96    1
     8    71    72    1
     9   123   121   am
    10   108   111    1
    11   108   107    1
    12   111   112    1
    13    75    72    1
    14   100    99    1
    15    96    99    1
    16    96    95    1
    17   120   121    1
    18   120   119    1
    19    72    73    1
    20   121   122    2
    21   115   116    1
    22   113   112    1
    23   112   114    1
    24   116   119    1
    25   116   117    1
    26    73    78   am
    27    73    74    2
    28    78    79    1
    29    94    93    1
    30   117   118    2
    31    81    80    2
    32    92    93   ar
    33    92    90   ar
    34    93    91   ar
    35   101   102    1
    36    79    80    1
    37    79    82    1
    38    90    88   ar
    39   106   105    1
    40    91    89   ar
    41   105   102    1
    42   102   103    1
    43    88    89   ar
    44    88    87    1
    45   132   134   ar
    46   132   130   ar
    47   134   133   ar
    48   130   129   ar
    49    87    84    1
    50   103   104    2
    51   124   125    1
    52    83    84    1
    53    64    65    2
    54    64    63    1
    55    84    85    1
    56   125   128    1
    57   125   126    1
    58   133   131   ar
    59   129   131   ar
    60   129   128    1
    61    63    66    1
    62    63    62    1
    63    66    67    1
    64    38    36   am
    65    67    68    1
    66    85    86    2
    67    37    36    2
    68   126   127    2
    69    60    59    1
    70    61    59    1
    71    36    35    1
    72    68    70   ar
    73    68    69   ar
    74   140   139    1
    75    59    58    2
    76    35    32    1
    77   139   136    1
    78    58    57    1
    79    56    55    1
    80    56    57    1
    81   157   156    1
    82   136   135    1
    83   136   137    1
    84    55    52    1
    85    30    28   ar
    86    32    31    1
    87    32    33    1
    88    27    28    1
    89    27    24    1
    90    42    41    2
    91    26    25    2
    92   156   155    1
    93    28    29   ar
    94   137   138    2
    95   148   146    1
    96    31    25   am
    97    39    33   am
    98    39    40    1
    99    25    24    1
   100   155   154    1
   101    33    34    2
   102    52    51    1
   103    52    53    1
   104   144   143    2
   105    24    23    1
   106    41    40    1
   107    46    48   ar
   108    46    44   ar
   109   142   141    1
   110   142   143    1
   111   142   145    1
   112    43    40    1
   113    43    44    1
   114    53    54    2
   115   146   145    1
   116   146   147    1
   117    48    49   ar
   118    44    45   ar
   119   154   153    1
   120   153   150    1
   121    13    12    1
   122    49    50    1
   123    49    47   ar
   124    21    22    1
   125    21    20    1
   126    45    47   ar
   127    12     9    1
   128   149   150    1
   129   150   151    1
   130   167   166    2
   131    11    10    2
   132   171   169    1
   133    19    20    1
   134    19    18    1
   135   169   168    1
   136   169   170    1
   137   151   152    2
   138     9    10    1
   139     9     8    1
   140   166   165    1
   141   168   165    1
   142   165   164    1
   143    15    18    1
   144    15    16    1
   145    15    14    1
   146     7     5    1
   147    16    17    2
   148   162   163    1
   149   162   159    1
   150     6     5    1
   151     5     2    1
   152     4     3    2
   153   159   160    1
   154   159   158    1
   155     3     2    1
   156     2     1    1
   157   160   161    2
   158   173   172    1
   159   173   174    1
   160   175   174    2
