@<TRIPOS>MOLECULE
tmp/2ceaD00.pdb
 137 131 0 0 0
SMALL
GASTEIGER

@<TRIPOS>ATOM
      1  N         88.1150   18.1170   38.6320 N.3    13  ASP13      -0.1225
      2  CA        87.7540   18.3910   39.9890 C.3    13  ASP13       0.1805
      3  C         87.2460   19.8270   40.1440 C.2    13  ASP13       0.2598
      4  O         86.7910   20.2310   41.2120 O.2    13  ASP13      -0.2718
      5  CB        88.9560   18.1170   40.8810 C.3    13  ASP13       0.1424
      6  CG        89.3660   16.6510   40.8570 C.2    13  ASP13       0.3668
      7  OD1       88.5220   15.8050   41.2210 O.co2  13  ASP13      -0.2456
      8  OD2       90.5140   16.3330   40.4500 O.co2  13  ASP13      -0.2456
      9  N         87.2860   20.5780   39.0550 N.am   14  VAL14      -0.1966
     10  CA        86.9060   21.9880   39.0810 C.3    14  VAL14       0.1727
     11  C         85.6170   22.2270   38.3210 C.2    14  VAL14       0.2617
     12  O         85.5600   22.0340   37.1280 O.2    14  VAL14      -0.2715
     13  CB        87.9850   22.8640   38.4140 C.3    14  VAL14       0.0290
     14  CG1       87.5970   24.3470   38.5100 C.3    14  VAL14       0.0023
     15  CG2       89.3540   22.5970   39.0290 C.3    14  VAL14       0.0023
     16  N         84.6030   22.7050   39.0150 N.am   15  GLY15      -0.1940
     17  CA        83.3190   22.9760   38.3970 C.3    15  GLY15       0.2014
     18  C         83.0620   24.4600   38.2600 C.2    15  GLY15       0.2639
     19  O         83.5560   25.2580   39.0440 O.2    15  GLY15      -0.2714
     20  N         82.3110   24.8200   37.2250 N.am   16  GLY16      -0.1939
     21  CA        81.8990   26.1970   36.9910 C.3    16  GLY16       0.2014
     22  C         83.0220   27.1950   36.7780 C.2    16  GLY16       0.2638
     23  O         82.9440   28.3130   37.2650 O.2    16  GLY16      -0.2714
     24  N         84.0580   26.8190   36.0390 N.am   17  ALA17      -0.1977
     25  CA        85.1490   27.7710   35.7430 C.3    17  ALA17       0.1597
     26  C         85.7010   27.5780   34.3300 C.2    17  ALA17       0.2287
     27  O         86.8990   27.6990   34.0910 O.2    17  ALA17      -0.2864
     28  CB        86.2820   27.6500   36.7940 C.3    17  ALA17       0.0319
     29  N         86.8740   34.5840   48.1880 N.3    54  PRO54      -0.2102
     30  CA        87.2520   33.3840   48.9160 C.3    54  PRO54       0.1504
     31  C         86.3890   32.1790   48.5750 C.2    54  PRO54       0.2576
     32  O         85.1710   32.2900   48.5300 O.2    54  PRO54      -0.2718
     33  CB        87.0400   33.7780   50.3800 C.3    54  PRO54       0.0282
     34  CG        87.0580   35.2680   50.3910 C.3    54  PRO54       0.0208
     35  CD        86.4800   35.6800   49.0920 C.3    54  PRO54       0.0893
     36  N         87.0290   31.0360   48.3420 N.am   55  GLY55      -0.1943
     37  CA        86.3240   29.7750   48.2060 C.3    55  GLY55       0.2014
     38  C         85.8360   29.4970   46.8090 C.2    55  GLY55       0.2640
     39  O         85.0490   28.5610   46.5840 O.2    55  GLY55      -0.2714
     40  N         86.3180   30.2860   45.8570 N.am   56  THR56      -0.1936
     41  CA        85.8600   30.1680   44.4920 C.3    56  THR56       0.2028
     42  C         86.6200   29.1230   43.7360 C.2    56  THR56       0.2643
     43  O         86.1190   28.5810   42.7730 O.2    56  THR56      -0.2714
     44  CB        85.9610   31.4690   43.7730 C.3    56  THR56       0.1808
     45  OG1       87.2230   32.0700   44.0630 O.3    56  THR56      -0.2208
     46  CG2       84.8570   32.3780   44.2140 C.3    56  THR56       0.0379
     47  N         87.8190   28.8090   44.2020 N.am   57  GLY57      -0.1939
     48  CA        88.6350   27.7590   43.5820 C.3    57  GLY57       0.2014
     49  C         89.9640   28.2690   43.0460 C.2    57  GLY57       0.2639
     50  O         90.5800   27.6370   42.1920 O.2    57  GLY57      -0.2714
     51  N         90.4050   29.4220   43.5410 N.am   58  LYS58      -0.1963
     52  CA        91.6950   29.9750   43.1390 C.3    58  LYS58       0.1728
     53  C         92.8050   28.9270   43.3810 C.2    58  LYS58       0.2617
     54  O         93.5650   28.5800   42.4720 O.2    58  LYS58      -0.2715
     55  CB        92.0000   31.2560   43.9310 C.3    58  LYS58       0.0311
     56  CG        91.0230   32.4110   43.7100 C.3    58  LYS58       0.0038
     57  CD        91.1930   33.5010   44.7720 C.3    58  LYS58       0.0206
     58  CE        90.2860   33.2150   45.9670 C.3    58  LYS58       0.1093
     59  NZ        90.5580   34.0480   47.1910 N.3    58  LYS58      -0.1314
     60  N         92.8810   28.4100   44.6040 N.am   59  THR59      -0.1937
     61  CA        93.8800   27.4290   44.9150 C.3    59  THR59       0.2028
     62  C         93.6460   26.1700   44.0860 C.2    59  THR59       0.2642
     63  O         94.5690   25.6200   43.4990 O.2    59  THR59      -0.2714
     64  CB        93.8840   27.0630   46.3960 C.3    59  THR59       0.1808
     65  OG1       93.8660   28.2530   47.1980 O.3    59  THR59      -0.2208
     66  CG2       95.1240   26.2510   46.7210 C.3    59  THR59       0.0379
     67  N         92.4050   25.7260   44.0330 N.am   60  LEU60      -0.1977
     68  CA        92.0540   24.5330   43.2780 C.3    60  LEU60       0.1596
     69  C         92.5950   24.5660   41.8330 C.2    60  LEU60       0.2287
     70  O         93.1620   23.5800   41.3230 O.2    60  LEU60      -0.2864
     71  CB        90.5500   24.4040   43.2300 C.3    60  LEU60       0.0297
     72  CG        90.0240   23.0060   43.0010 C.3    60  LEU60       0.0022
     73  CD1       90.6270   22.0360   43.9830 C.3    60  LEU60       0.0001
     74  CD2       88.5310   23.0270   43.1300 C.3    60  LEU60       0.0001
     75  N         96.3460   24.0250   41.7910 N.3    63  ARG63      -0.1245
     76  CA        96.5510   22.6190   42.0290 C.3    63  ARG63       0.1563
     77  C         96.1480   21.8130   40.7950 C.2    63  ARG63       0.2260
     78  O         96.7970   20.8460   40.4420 O.2    63  ARG63      -0.2867
     79  CB        95.7250   22.1670   43.2230 C.3    63  ARG63       0.0307
     80  CG        96.1480   22.8120   44.5210 C.3    63  ARG63       0.0489
     81  CD        95.2470   22.3870   45.6830 C.3    63  ARG63       0.2205
     82  NE        95.3170   20.9570   45.9370 N.pl3  63  ARG63      -0.0865
     83  CZ        94.2970   20.2420   46.3960 C.cat  63  ARG63       0.5346
     84  NH1       93.1360   20.8250   46.6360 N.pl3  63  ARG63       0.1354
     85  NH2       94.4320   18.9450   46.6030 N.pl3  63  ARG63       0.1354
     86  N         99.4300   31.9440   47.8890 N.3   111  ASP111     -0.1239
     87  CA        98.1110   32.3630   48.3880 C.3   111  ASP111      0.1674
     88  C         98.2530   33.6810   49.1180 C.2   111  ASP111      0.2266
     89  O         99.3320   33.9990   49.6180 O.2   111  ASP111     -0.2867
     90  CB        97.5700   31.3070   49.3650 C.3   111  ASP111      0.1410
     91  CG        96.0400   31.3770   49.5440 C.2   111  ASP111      0.3668
     92  OD1       95.5340   30.9090   50.6040 O.co2 111  ASP111     -0.2456
     93  OD2       95.3440   31.8830   48.6270 O.co2 111  ASP111     -0.2456
     94  N         79.4330   21.5810   40.4410 N.3   178  ILE178     -0.1245
     95  CA        80.2020   21.4140   41.6440 C.3   178  ILE178      0.1561
     96  C         79.6450   20.3030   42.5480 C.2   178  ILE178      0.2260
     97  O         80.4030   19.5150   43.1230 O.2   178  ILE178     -0.2867
     98  CB        80.2750   22.7130   42.4310 C.3   178  ILE178      0.0252
     99  CG1       81.1620   23.7230   41.6760 C.3   178  ILE178      0.0019
    100  CG2       80.8160   22.4370   43.8530 C.3   178  ILE178      0.0019
    101  CD1       81.0290   25.1130   42.1440 C.3   178  ILE178      0.0001
    102  N         80.5190   17.0060   41.1910 N.3   181  ILE181     -0.1231
    103  CA        81.9270   16.6860   41.4040 C.3   181  ILE181      0.1692
    104  C         82.1950   16.1460   42.7960 C.2   181  ILE181      0.2592
    105  O         82.9470   15.1910   42.9750 O.2   181  ILE181     -0.2718
    106  CB        82.7900   17.9050   41.2310 C.3   181  ILE181      0.0266
    107  CG1       83.0510   18.1580   39.7460 C.3   181  ILE181      0.0019
    108  CG2       84.0900   17.7180   41.9820 C.3   181  ILE181      0.0020
    109  CD1       83.7920   19.4580   39.4730 C.3   181  ILE181      0.0001
    110  N         81.5900   16.7730   43.7860 N.am  182  HIS182     -0.1976
    111  CA        81.8400   16.4130   45.1480 C.3   182  HIS182      0.1656
    112  C         80.9340   15.3140   45.5700 C.2   182  HIS182      0.2291
    113  O         80.9540   14.8910   46.7240 O.2   182  HIS182     -0.2864
    114  CB        81.6980   17.6320   46.0430 C.3   182  HIS182      0.0771
    115  CG        82.8170   18.6010   45.8890 C.ar  182  HIS182      0.0820
    116  ND1       84.1270   18.2600   46.1410 N.ar  182  HIS182     -0.2267
    117  CD2       82.8410   19.8730   45.4410 C.ar  182  HIS182      0.1154
    118  CE1       84.9070   19.2930   45.8910 C.ar  182  HIS182      0.1986
    119  NE2       84.1530   20.2860   45.4650 N.ar  182  HIS182     -0.2212
    120  N         82.2680   27.3040   45.7100 N.3   206  GLY206     -0.1210
    121  CA        82.7060   25.9140   45.7780 C.3   206  GLY206      0.1956
    122  C         82.9510   25.4540   47.2050 C.2   206  GLY206      0.2611
    123  O         82.4430   24.4310   47.6390 O.2   206  GLY206     -0.2717
    124  N         83.7400   26.2090   47.9390 N.am  207  ALA207     -0.1979
    125  CA        83.9630   25.8970   49.3410 C.3   207  ALA207      0.1597
    126  C         82.6230   25.6140   50.0650 C.2   207  ALA207      0.2287
    127  O         82.4810   24.6160   50.7830 O.2   207  ALA207     -0.2864
    128  CB        84.6790   27.0200   50.0030 C.3   207  ALA207      0.0319
    129  N         81.0570   22.2640   48.7410 N.3   210  GLU210     -0.1245
    130  CA        81.7550   21.0740   49.3250 C.3   210  GLU210      0.1567
    131  C         81.3160   20.8080   50.7790 C.2   210  GLU210      0.2260
    132  O         81.0540   19.6840   51.1640 O.2   210  GLU210     -0.2867
    133  CB        83.2850   21.2010   49.2980 C.3   210  GLU210      0.0388
    134  CG        83.9250   20.3230   50.3650 C.3   210  GLU210      0.1160
    135  CD        85.4320   20.2400   50.2730 C.2   210  GLU210      0.3649
    136  OE1       86.0940   21.2840   50.0330 O.co2 210  GLU210     -0.2457
    137  OE2       85.9670   19.1290   50.4720 O.co2 210  GLU210     -0.2457
@<TRIPOS>BOND
     1    27    26    2
     2    26    25    1
     3    25    24    1
     4    25    28    1
     5    24    22   am
     6    22    21    1
     7    22    23    2
     8    21    20    1
     9    12    11    2
    10    20    18   am
    11    18    17    1
    12    18    19    2
    13    11    16   am
    14    11    10    1
    15    17    16    1
    16    13    14    1
    17    13    15    1
    18    13    10    1
    19     1     2    1
    20     9    10    1
    21     9     3   am
    22   109   107    1
    23   107   106    1
    24     2     3    1
    25     2     5    1
    26     3     4    2
    27    94    95    1
    28    78    77    2
    29     8     6   ar
    30    77    76    1
    31     6     5    1
    32     6     7   ar
    33   102   103    1
    34   106   103    1
    35   106   108    1
    36    70    69    2
    37   103   104    1
    38    95    98    1
    39    95    96    1
    40    99   101    1
    41    99    98    1
    42    75    76    1
    43    69    68    1
    44    76    79    1
    45    50    49    2
    46    98   100    1
    47    54    53    2
    48    96    97    2
    49    43    42    2
    50   104   105    2
    51   104   110   am
    52    72    74    1
    53    72    71    1
    54    72    73    1
    55    49    51   am
    56    49    48    1
    57    52    53    1
    58    52    51    1
    59    52    55    1
    60    79    80    1
    61    71    68    1
    62    68    67    1
    63    53    60   am
    64    63    62    2
    65    48    47    1
    66    56    55    1
    67    56    57    1
    68    42    47   am
    69    42    41    1
    70    44    45    1
    71    44    46    1
    72    44    41    1
    73   110   111    1
    74    67    62   am
    75    62    61    1
    76    41    40    1
    77    80    81    1
    78    60    61    1
    79    57    58    1
    80    61    64    1
    81   111   112    1
    82   111   114    1
    83   117   119   ar
    84   117   115   ar
    85   119   118   ar
    86   112   113    2
    87    81    82    1
    88   120   121    1
    89   121   122    1
    90    40    38   am
    91   115   114    1
    92   115   116   ar
    93   118   116   ar
    94    82    83    2
    95    58    59    1
    96    64    66    1
    97    64    65    1
    98    83    85    1
    99    83    84    1
   100    39    38    2
   101    38    37    1
   102   122   123    2
   103   122   124   am
   104    86    87    1
   105   124   125    1
   106    29    30    1
   107    29    35    1
   108    37    36    1
   109    36    31   am
   110    87    88    1
   111    87    90    1
   112    32    31    2
   113    31    30    1
   114    93    91   ar
   115   129   130    1
   116    30    33    1
   117    35    34    1
   118    88    89    2
   119   133   130    1
   120   133   134    1
   121   130   131    1
   122   125   128    1
   123   125   126    1
   124    90    91    1
   125    91    92   ar
   126   136   135   ar
   127   126   127    2
   128   135   134    1
   129   135   137   ar
   130    33    34    1
   131   131   132    2
