@<TRIPOS>MOLECULE
tmp/2ceaC00.pdb
 137 131 0 0 0
SMALL
GASTEIGER

@<TRIPOS>ATOM
      1  N         41.9030  118.6540  102.0900 N.3    13  ASP13      -0.1225
      2  CA        41.4070  117.6520  101.1640 C.3    13  ASP13       0.1805
      3  C         42.4380  116.5700  100.8470 C.2    13  ASP13       0.2598
      4  O         42.1790  115.6800  100.0390 O.2    13  ASP13      -0.2718
      5  CB        40.9490  118.3260   99.8760 C.3    13  ASP13       0.1424
      6  CG        40.0440  119.5090  100.1320 C.2    13  ASP13       0.3668
      7  OD1       39.2310  119.8350   99.2460 O.co2  13  ASP13      -0.2456
      8  OD2       40.1440  120.1140  101.2220 O.co2  13  ASP13      -0.2456
      9  N         43.6030  116.6480  101.4840 N.am   14  VAL14      -0.1966
     10  CA        44.6770  115.6680  101.2620 C.3    14  VAL14       0.1727
     11  C         44.9310  114.8680  102.5330 C.2    14  VAL14       0.2617
     12  O         45.3340  115.4230  103.5450 O.2    14  VAL14      -0.2715
     13  CB        46.0170  116.3610  100.8750 C.3    14  VAL14       0.0290
     14  CG1       47.0950  115.3130  100.5660 C.3    14  VAL14       0.0023
     15  CG2       45.8220  117.3030   99.6920 C.3    14  VAL14       0.0023
     16  N         44.7330  113.5600  102.4660 N.am   15  GLY15      -0.1940
     17  CA        44.9250  112.7010  103.6310 C.3    15  GLY15       0.2014
     18  C         46.1540  111.8180  103.5180 C.2    15  GLY15       0.2639
     19  O         46.5770  111.4590  102.4180 O.2    15  GLY15      -0.2714
     20  N         46.7390  111.4830  104.6640 N.am   16  GLY16      -0.1939
     21  CA        47.8370  110.5070  104.7210 C.3    16  GLY16       0.2014
     22  C         49.1920  111.0070  104.2350 C.2    16  GLY16       0.2638
     23  O         50.0460  110.2110  103.8430 O.2    16  GLY16      -0.2714
     24  N         49.4050  112.3180  104.2740 N.am   17  ALA17      -0.1977
     25  CA        50.6740  112.8860  103.8130 C.3    17  ALA17       0.1597
     26  C         51.0970  114.0710  104.6820 C.2    17  ALA17       0.2287
     27  O         51.5020  115.1150  104.1740 O.2    17  ALA17      -0.2864
     28  CB        50.5660  113.3030  102.3510 C.3    17  ALA17       0.0319
     29  N         52.0290  106.5940   91.2230 N.3    54  PRO54      -0.2102
     30  CA        50.8210  107.2330   90.7110 C.3    54  PRO54       0.1504
     31  C         49.6290  107.1160   91.6610 C.2    54  PRO54       0.2576
     32  O         49.4740  106.1090   92.3450 O.2    54  PRO54      -0.2718
     33  CB        50.5440  106.4720   89.4070 C.3    54  PRO54       0.0282
     34  CG        51.2840  105.1930   89.5410 C.3    54  PRO54       0.0208
     35  CD        52.4610  105.4620   90.3880 C.3    54  PRO54       0.0893
     36  N         48.7960  108.1470   91.6920 N.am   55  GLY55      -0.1943
     37  CA        47.5760  108.1110   92.4730 C.3    55  GLY55       0.2014
     38  C         47.8300  108.2770   93.9520 C.2    55  GLY55       0.2640
     39  O         47.0240  107.8490   94.7730 O.2    55  GLY55      -0.2714
     40  N         48.9530  108.8950   94.3000 N.am   56  THR56      -0.1936
     41  CA        49.2740  109.1360   95.6980 C.3    56  THR56       0.2028
     42  C         49.0450  110.5930   96.0850 C.2    56  THR56       0.2643
     43  O         49.3150  110.9930   97.2180 O.2    56  THR56      -0.2714
     44  CB        50.7290  108.7340   96.0320 C.3    56  THR56       0.1808
     45  OG1       51.5970  109.0920   94.9470 O.3    56  THR56      -0.2208
     46  CG2       50.8240  107.2290   96.2840 C.3    56  THR56       0.0379
     47  N         48.5540  111.3910   95.1430 N.am   57  GLY57      -0.1939
     48  CA        48.1260  112.7500   95.4560 C.3    57  GLY57       0.2014
     49  C         49.1880  113.7790   95.1700 C.2    57  GLY57       0.2639
     50  O         49.1480  114.8960   95.6990 O.2    57  GLY57      -0.2714
     51  N         50.1460  113.4090   94.3330 N.am   58  LYS58      -0.1963
     52  CA        51.1730  114.3400   93.9120 C.3    58  LYS58       0.1728
     53  C         50.4930  115.5940   93.3240 C.2    58  LYS58       0.2617
     54  O         50.6200  116.6930   93.8700 O.2    58  LYS58      -0.2715
     55  CB        52.1230  113.6710   92.8980 C.3    58  LYS58       0.0311
     56  CG        52.9830  112.5370   93.5060 C.3    58  LYS58       0.0038
     57  CD        53.7480  111.7440   92.4410 C.3    58  LYS58       0.0206
     58  CE        52.8700  110.6810   91.7940 C.3    58  LYS58       0.1093
     59  NZ        53.3790  110.2360   90.4540 N.3    58  LYS58      -0.1314
     60  N         49.7340  115.4190   92.2460 N.am   59  THR59      -0.1937
     61  CA        49.0350  116.5390   91.6260 C.3    59  THR59       0.2028
     62  C         48.2100  117.2840   92.6850 C.2    59  THR59       0.2642
     63  O         48.2610  118.5090   92.7770 O.2    59  THR59      -0.2714
     64  CB        48.0870  116.0630   90.4920 C.3    59  THR59       0.1808
     65  OG1       48.7420  115.0740   89.6850 O.3    59  THR59      -0.2208
     66  CG2       47.6700  117.2290   89.6240 C.3    59  THR59       0.0379
     67  N         47.4730  116.5280   93.4910 N.am   60  LEU60      -0.1977
     68  CA        46.6470  117.0930   94.5520 C.3    60  LEU60       0.1596
     69  C         47.4260  118.0890   95.4270 C.2    60  LEU60       0.2287
     70  O         47.0100  119.2380   95.5900 O.2    60  LEU60      -0.2864
     71  CB        46.0950  115.9750   95.4280 C.3    60  LEU60       0.0297
     72  CG        44.7550  116.2970   96.0510 C.3    60  LEU60       0.0022
     73  CD1       43.8780  116.9470   95.0060 C.3    60  LEU60       0.0001
     74  CD2       44.1030  115.0430   96.6060 C.3    60  LEU60       0.0001
     75  N         48.1430  121.4340   93.9480 N.3    63  ARG63      -0.1245
     76  CA        46.9640  122.2870   93.9160 C.3    63  ARG63       0.1563
     77  C         46.5470  122.7180   95.3140 C.2    63  ARG63       0.2260
     78  O         46.0820  123.8390   95.5080 O.2    63  ARG63      -0.2867
     79  CB        45.8410  121.5600   93.2080 C.3    63  ARG63       0.0307
     80  CG        46.2540  121.1280   91.8280 C.3    63  ARG63       0.0489
     81  CD        45.2570  120.2280   91.2150 C.3    63  ARG63       0.2205
     82  NE        44.0170  120.9140   90.9230 N.pl3  63  ARG63      -0.0865
     83  CZ        42.9110  120.2870   90.5600 C.cat  63  ARG63       0.5346
     84  NH1       42.9140  118.9640   90.4560 N.pl3  63  ARG63       0.1354
     85  NH2       41.8040  120.9730   90.3100 N.pl3  63  ARG63       0.1354
     86  N         53.4760  117.9710   85.5740 N.3   111  ASP111     -0.1239
     87  CA        53.3110  116.5530   85.8570 C.3   111  ASP111      0.1674
     88  C         54.1230  115.7220   84.8760 C.2   111  ASP111      0.2266
     89  O         54.4780  116.1870   83.7900 O.2   111  ASP111     -0.2867
     90  CB        51.8410  116.1610   85.7630 C.3   111  ASP111      0.1410
     91  CG        51.5650  114.7870   86.3440 C.2   111  ASP111      0.3668
     92  OD1       50.4870  114.2240   86.0390 O.co2 111  ASP111     -0.2456
     93  OD2       52.4180  114.2710   87.1070 O.co2 111  ASP111     -0.2456
     94  N         41.8260  109.0360  104.0030 N.3   177  ILE177     -0.1245
     95  CA        41.4930  109.2680  102.6040 C.3   177  ILE177      0.1561
     96  C         40.0660  108.8010  102.3230 C.2   177  ILE177      0.2260
     97  O         39.3310  109.4730  101.6080 O.2   177  ILE177     -0.2867
     98  CB        42.5210  108.6090  101.6240 C.3   177  ILE177      0.0252
     99  CG1       43.9370  109.2030  101.8650 C.3   177  ILE177      0.0019
    100  CG2       42.0680  108.8140  100.1490 C.3   177  ILE177      0.0019
    101  CD1       44.9710  108.8750  100.7780 C.3   177  ILE177      0.0001
    102  N         37.6190  111.3830  103.6460 N.3   180  ILE180     -0.1231
    103  CA        37.5750  112.5950  102.8240 C.3   180  ILE180      0.1692
    104  C         36.6670  112.4120  101.6280 C.2   180  ILE180      0.2592
    105  O         35.8840  113.2910  101.3020 O.2   180  ILE180     -0.2718
    106  CB        38.9720  112.9880  102.2860 C.3   180  ILE180      0.0266
    107  CG1       39.8830  113.4540  103.4220 C.3   180  ILE180      0.0019
    108  CG2       38.8450  114.0970  101.2390 C.3   180  ILE180      0.0020
    109  CD1       41.2810  113.8450  102.9590 C.3   180  ILE180      0.0001
    110  N         36.7860  111.2780  100.9550 N.am  181  HIS181     -0.1976
    111  CA        36.0180  111.0580   99.7440 C.3   181  HIS181      0.1656
    112  C         34.6380  110.5600  100.0530 C.2   181  HIS181      0.2291
    113  O         33.8830  110.2110   99.1460 O.2   181  HIS181     -0.2864
    114  CB        36.7300  110.0830   98.8360 C.3   181  HIS181      0.0771
    115  CG        37.9600  110.6490   98.2210 C.ar  181  HIS181      0.0820
    116  ND1       37.9170  111.5430   97.1750 N.ar  181  HIS181     -0.2267
    117  CD2       39.2640  110.4860   98.5290 C.ar  181  HIS181      0.1154
    118  CE1       39.1470  111.8920   96.8510 C.ar  181  HIS181      0.1986
    119  NE2       39.9840  111.2640   97.6570 N.ar  181  HIS181     -0.2212
    120  N         45.5640  106.5950   97.2440 N.3   205  GLY205     -0.1210
    121  CA        44.4310  107.5120   97.2470 C.3   205  GLY205      0.1956
    122  C         43.5360  107.2840   96.0530 C.2   205  GLY205      0.2611
    123  O         42.3320  107.0770   96.2000 O.2   205  GLY205     -0.2717
    124  N         44.1270  107.3040   94.8630 N.am  206  ALA206     -0.1979
    125  CA        43.3690  107.1270   93.6260 C.3   206  ALA206      0.1597
    126  C         42.4940  105.8800   93.6980 C.2   206  ALA206      0.2287
    127  O         41.3180  105.8980   93.3190 O.2   206  ALA206     -0.2864
    128  CB        44.2970  107.0360   92.4630 C.3   206  ALA206      0.0319
    129  N         39.6010  106.4710   96.2480 N.3   209  GLU209     -0.1245
    130  CA        38.5730  107.2810   95.6480 C.3   209  GLU209      0.1567
    131  C         37.7250  106.3860   94.7570 C.2   209  GLU209      0.2260
    132  O         36.5200  106.5500   94.6590 O.2   209  GLU209     -0.2867
    133  CB        39.2040  108.4110   94.8160 C.3   209  GLU209      0.0388
    134  CG        38.2090  109.4410   94.2700 C.3   209  GLU209      0.1160
    135  CD        38.7930  110.2920   93.1350 C.2   209  GLU209      0.3649
    136  OE1       39.9950  110.1380   92.8160 O.co2 209  GLU209     -0.2457
    137  OE2       38.0460  111.1140   92.5520 O.co2 209  GLU209     -0.2457
@<TRIPOS>BOND
     1    89    88    2
     2    88    87    1
     3    86    87    1
     4    90    87    1
     5    90    91    1
     6    92    91   ar
     7    91    93   ar
     8    33    34    1
     9    33    30    1
    10    34    35    1
    11    66    64    1
    12    65    64    1
    13    85    83    1
    14    35    29    1
    15    59    58    1
    16    84    83    1
    17    64    61    1
    18    83    82    2
    19    30    29    1
    20    30    31    1
    21    82    81    1
    22    81    80    1
    23    61    60    1
    24    61    62    1
    25    31    36   am
    26    31    32    2
    27    36    37    1
    28    58    57    1
    29    80    79    1
    30    60    53   am
    31    57    56    1
    32   128   125    1
    33    37    38    1
    34   137   135   ar
    35    62    63    2
    36    62    67   am
    37   136   135   ar
    38    55    56    1
    39    55    52    1
    40   135   134    1
    41    79    76    1
    42   127   126    2
    43    53    54    2
    44    53    52    1
    45    67    68    1
    46   125   126    1
    47   125   124    1
    48    52    51    1
    49    76    75    1
    50    76    77    1
    51    38    40   am
    52    38    39    2
    53   134   133    1
    54    40    41    1
    55    51    49   am
    56    68    69    1
    57    68    71    1
    58   132   131    2
    59   131   130    1
    60   133   130    1
    61   124   122   am
    62    45    44    1
    63    73    72    1
    64    47    48    1
    65    47    42   am
    66    49    48    1
    67    49    50    2
    68    77    78    2
    69    69    70    2
    70    71    72    1
    71   130   129    1
    72    41    44    1
    73    41    42    1
    74    44    46    1
    75    72    74    1
    76   122   123    2
    77   122   121    1
    78    42    43    2
    79   118   116   ar
    80   118   119   ar
    81   116   115   ar
    82   120   121    1
    83   119   117   ar
    84   115   117   ar
    85   115   114    1
    86   114   111    1
    87   113   112    2
    88     7     6   ar
    89    15    13    1
    90   111   112    1
    91   111   110    1
    92     5     6    1
    93     5     2    1
    94     4     3    2
    95     6     8   ar
    96   100    98    1
    97    14    13    1
    98   101    99    1
    99     3     2    1
   100     3     9   am
   101    13    10    1
   102   110   104   am
   103     2     1    1
   104   108   106    1
   105    10     9    1
   106    10    11    1
   107   105   104    2
   108    97    96    2
   109    98    99    1
   110    98    95    1
   111   104   103    1
   112   106   103    1
   113   106   107    1
   114    96    95    1
   115    28    25    1
   116    19    18    2
   117    16    11   am
   118    16    17    1
   119    11    12    2
   120    95    94    1
   121   103   102    1
   122   109   107    1
   123    18    17    1
   124    18    20   am
   125    25    24    1
   126    25    26    1
   127    23    22    2
   128    27    26    2
   129    22    24   am
   130    22    21    1
   131    20    21    1
