@<TRIPOS>MOLECULE
tmp/2cejA00.pdb
 113 105 0 0 0
SMALL
GASTEIGER

@<TRIPOS>ATOM
      1  N         26.3760   23.6410    5.7700 N.3     8  ARG8       -0.1245
      2  CA        25.1820   24.3190    6.2490 C.3     8  ARG8        0.1563
      3  C         25.5740   25.7110    6.7280 C.2     8  ARG8        0.2260
      4  O         26.5620   25.8770    7.4500 O.2     8  ARG8       -0.2867
      5  CB        24.5570   23.5480    7.4070 C.3     8  ARG8        0.0307
      6  CG        23.7720   22.3330    6.9870 C.3     8  ARG8        0.0489
      7  CD        22.8820   21.8380    8.1210 C.3     8  ARG8        0.2205
      8  NE        21.9500   20.8200    7.6560 N.pl3   8  ARG8       -0.0865
      9  CZ        21.0220   20.2530    8.4150 C.cat   8  ARG8        0.5346
     10  NH1       20.8970   20.5990    9.6860 N.pl3   8  ARG8        0.1354
     11  NH2       20.2090   19.3450    7.8950 N.pl3   8  ARG8        0.1354
     12  N         20.2660   28.0970   11.7560 N.3    23  LEU23      -0.1245
     13  CA        20.4060   27.8490   10.3270 C.3    23  LEU23       0.1561
     14  C         19.7150   28.8920    9.4340 C.2    23  LEU23       0.2260
     15  O         18.4980   29.0250    9.4570 O.2    23  LEU23      -0.2867
     16  CB        19.8490   26.4550   10.0280 C.3    23  LEU23       0.0270
     17  CG        19.8220   25.9640    8.5870 C.3    23  LEU23       0.0019
     18  CD1       21.2370   25.9440    8.0170 C.3    23  LEU23       0.0001
     19  CD2       19.2080   24.5770    8.5530 C.3    23  LEU23       0.0001
     20  N         17.9080   29.8340    6.6680 N.3    25  ASP25      -0.1239
     21  CA        17.0990   29.0700    5.7150 C.3    25  ASP25       0.1674
     22  C         16.1730   29.8820    4.8040 C.2    25  ASP25       0.2266
     23  O         15.0720   30.2580    5.2060 O.2    25  ASP25      -0.2867
     24  CB        16.2550   28.0670    6.5050 C.3    25  ASP25       0.1410
     25  CG        15.6430   26.9840    5.6330 C.2    25  ASP25       0.3668
     26  OD1       15.3700   27.2310    4.4410 O.co2  25  ASP25      -0.2456
     27  OD2       15.4240   25.8810    6.1540 O.co2  25  ASP25      -0.2456
     28  N         14.4970   28.8270    2.5780 N.3    27  GLY27      -0.1210
     29  CA        13.3450   27.9990    2.2770 C.3    27  GLY27       0.1956
     30  C         12.4050   27.9480    3.4690 C.2    27  GLY27       0.2612
     31  O         11.5260   27.0850    3.5460 O.2    27  GLY27      -0.2717
     32  N         12.5970   28.8850    4.3970 N.am   28  ALA28      -0.1965
     33  CA        11.7810   28.9750    5.6050 C.3    28  ALA28       0.1728
     34  C         11.0410   30.3010    5.6710 C.2    28  ALA28       0.2616
     35  O         11.6610   31.3660    5.6570 O.2    28  ALA28      -0.2715
     36  CB        12.6670   28.8260    6.8350 C.3    28  ALA28       0.0334
     37  N          9.7150   30.2440    5.7470 N.am   29  ASP29      -0.1957
     38  CA         8.9290   31.4680    5.8360 C.3    29  ASP29       0.1840
     39  C          9.0980   32.0680    7.2360 C.2    29  ASP29       0.2622
     40  O          9.1860   33.2940    7.3930 O.2    29  ASP29      -0.2715
     41  CB         7.4260   31.2010    5.6040 C.3    29  ASP29       0.1450
     42  CG         7.1080   30.6620    4.2070 C.2    29  ASP29       0.3671
     43  OD1        7.9760   30.6690    3.3150 O.co2  29  ASP29      -0.2456
     44  OD2        5.9520   30.2350    4.0030 O.co2  29  ASP29      -0.2456
     45  N          9.1530   31.2050    8.2530 N.am   30  ASP30      -0.1971
     46  CA         9.2750   31.6780    9.6320 C.3    30  ASP30       0.1709
     47  C         10.5560   31.2510   10.3410 C.2    30  ASP30       0.2293
     48  O         11.3200   30.4280    9.8510 O.2    30  ASP30      -0.2864
     49  CB         8.0940   31.1730   10.4610 C.3    30  ASP30       0.1436
     50  CG         6.7880   31.1950    9.6950 C.2    30  ASP30       0.3671
     51  OD1        6.4070   32.2690    9.1930 O.co2  30  ASP30      -0.2456
     52  OD2        6.1400   30.1350    9.5940 O.co2  30  ASP30      -0.2456
     53  N         11.9390   29.4390   13.5900 N.3    32  VAL32      -0.1245
     54  CA        11.5100   28.5470   14.6370 C.3    32  VAL32       0.1561
     55  C         12.7290   28.0970   15.4110 C.2    32  VAL32       0.2260
     56  O         13.7270   27.6650   14.8320 O.2    32  VAL32      -0.2867
     57  CB        10.7190   27.3340   14.0520 C.3    32  VAL32       0.0252
     58  CG1       11.5460   26.6100   13.0210 C.3    32  VAL32       0.0019
     59  CG2       10.2980   26.3940   15.1620 C.3    32  VAL32       0.0019
     60  N          3.2430   24.6110   11.8300 N.3    47  ILE47      -0.1231
     61  CA         4.0650   24.8500   10.6680 C.3    47  ILE47       0.1692
     62  C          4.4670   23.4970   10.1020 C.2    47  ILE47       0.2593
     63  O          4.6570   22.5300   10.8410 O.2    47  ILE47      -0.2718
     64  CB         5.2980   25.7020   11.0180 C.3    47  ILE47       0.0266
     65  CG1        6.1640   24.9880   12.0620 C.3    47  ILE47       0.0019
     66  CG2        4.8400   27.0690   11.5010 C.3    47  ILE47       0.0020
     67  CD1        7.3660   25.7960   12.5500 C.3    47  ILE47       0.0001
     68  N          4.5660   23.4230    8.7780 N.am   48  GLY48      -0.1942
     69  CA         4.9150   22.1680    8.1440 C.3    48  GLY48       0.2014
     70  C          6.0000   22.2790    7.1010 C.2    48  GLY48       0.2639
     71  O          6.3490   23.3770    6.6520 O.2    48  GLY48      -0.2714
     72  N          6.5270   21.1150    6.7310 N.am   49  GLY49      -0.1939
     73  CA         7.5860   21.0030    5.7400 C.3    49  GLY49       0.2014
     74  C          7.8250   19.5250    5.4670 C.2    49  GLY49       0.2638
     75  O          6.9120   18.7030    5.6240 O.2    49  GLY49      -0.2714
     76  N          9.0390   19.1690    5.0640 N.am   50  ILE50      -0.1977
     77  CA         9.3130   17.7710    4.8160 C.3    50  ILE50       0.1596
     78  C          9.0650   17.0870    6.1490 C.2    50  ILE50       0.2287
     79  O          9.5170   17.5660    7.1940 O.2    50  ILE50      -0.2864
     80  CB        10.7760   17.5400    4.3520 C.3    50  ILE50       0.0276
     81  CG1       10.8890   17.7600    2.8420 C.3    50  ILE50       0.0022
     82  CG2       11.2340   16.1150    4.6860 C.3    50  ILE50       0.0022
     83  CD1       10.7810   19.1760    2.4240 C.3    50  ILE50       0.0001
     84  N          4.3510   20.4620   12.8940 N.3    54  ILE54      -0.1245
     85  CA         4.6770   20.4430   14.3230 C.3    54  ILE54       0.1561
     86  C          3.9530   21.6280   14.9520 C.2    54  ILE54       0.2260
     87  O          3.6350   22.6090   14.2700 O.2    54  ILE54      -0.2867
     88  CB         6.1880   20.6170   14.6070 C.3    54  ILE54       0.0252
     89  CG1        6.7030   21.8670   13.8920 C.3    54  ILE54       0.0019
     90  CG2        6.9390   19.3540   14.2150 C.3    54  ILE54       0.0019
     91  CD1        8.0760   22.3010   14.3250 C.3    54  ILE54       0.0001
     92  N         14.0080   20.3620   14.8270 N.3    81  PRO81      -0.2102
     93  CA        15.2720   19.6310   15.0100 C.3    81  PRO81       0.1504
     94  C         16.5310   20.5010   15.0010 C.2    81  PRO81       0.2575
     95  O         17.5720   20.0780   15.4880 O.2    81  PRO81      -0.2718
     96  CB        15.2480   18.5830   13.8850 C.3    81  PRO81       0.0282
     97  CG        14.3600   19.1980   12.8450 C.3    81  PRO81       0.0208
     98  CD        13.2710   19.8780   13.6450 C.3    81  PRO81       0.0893
     99  N         16.4320   21.7090   14.4520 N.am   82  VAL82      -0.1980
    100  CA        17.5550   22.6500   14.4130 C.3    82  VAL82       0.1595
    101  C         16.9940   24.0560   14.4640 C.2    82  VAL82       0.2287
    102  O         15.8920   24.2960   13.9820 O.2    82  VAL82      -0.2864
    103  CB        18.3870   22.5550   13.0950 C.3    82  VAL82       0.0276
    104  CG1       17.4990   22.8350   11.9050 C.3    82  VAL82       0.0022
    105  CG2       19.5080   23.5900   13.0980 C.3    82  VAL82       0.0022
    106  N         16.2300   27.5550   13.2560 N.3    84  ILE84      -0.1245
    107  CA        16.1270   28.0610   11.9080 C.3    84  ILE84       0.1561
    108  C         15.7270   29.5320   11.8670 C.2    84  ILE84       0.2260
    109  O         14.7610   29.9450   12.5170 O.2    84  ILE84      -0.2867
    110  CB        15.0720   27.2080   11.1110 C.3    84  ILE84       0.0252
    111  CG1       15.6180   25.7910   10.8840 C.3    84  ILE84       0.0019
    112  CG2       14.6920   27.8920    9.7960 C.3    84  ILE84       0.0019
    113  CD1       14.5930   24.8180   10.3510 C.3    84  ILE84       0.0001
@<TRIPOS>BOND
     1    29    28    1
     2    29    30    1
     3    83    81    1
     4    81    80    1
     5    43    42   ar
     6    30    31    2
     7    30    32   am
     8    44    42   ar
     9    42    41    1
    10    80    82    1
    11    80    77    1
    12    32    33    1
    13    26    25   ar
    14    22    23    2
    15    22    21    1
    16    77    76    1
    17    77    78    1
    18    76    74   am
    19    74    75    2
    20    74    73    1
    21    41    38    1
    22    33    34    1
    23    33    36    1
    24    25    27   ar
    25    25    24    1
    26    35    34    2
    27    34    37   am
    28    21    24    1
    29    21    20    1
    30    73    72    1
    31    37    38    1
    32     1     2    1
    33    38    39    1
    34    78    79    2
    35     2     3    1
    36     2     5    1
    37    71    70    2
    38     3     4    2
    39    72    70   am
    40     6     5    1
    41     6     7    1
    42    70    69    1
    43    39    40    2
    44    39    45   am
    45     8     7    1
    46     8     9    2
    47    11     9    1
    48    18    17    1
    49    69    68    1
    50    45    46    1
    51     9    10    1
    52    19    17    1
    53    17    16    1
    54    68    62   am
    55    51    50   ar
    56    14    15    2
    57    14    13    1
    58    52    50   ar
    59    46    47    1
    60    46    49    1
    61    50    49    1
    62   112   110    1
    63    48    47    2
    64    16    13    1
    65    62    61    1
    66    62    63    2
    67    13    12    1
    68   113   111    1
    69    61    64    1
    70    61    60    1
    71   111   110    1
    72    64    66    1
    73    64    65    1
    74   110   107    1
    75   108   107    1
    76   108   109    2
    77   104   103    1
    78   107   106    1
    79    65    67    1
    80    97    98    1
    81    97    96    1
    82    84    85    1
    83    58    57    1
    84   103   105    1
    85   103   100    1
    86    53    54    1
    87    98    92    1
    88    96    93    1
    89    89    91    1
    90    89    88    1
    91   102   101    2
    92    57    54    1
    93    57    59    1
    94    90    88    1
    95    87    86    2
    96    85    88    1
    97    85    86    1
    98   100    99    1
    99   100   101    1
   100    99    94   am
   101    54    55    1
   102    92    93    1
   103    56    55    2
   104    94    93    1
   105    94    95    2
