@<TRIPOS>MOLECULE
tmp/2cekA01.pdb
 97 92 0 0 0
SMALL
GASTEIGER

@<TRIPOS>ATOM
      1  N         -3.7880   89.9440   50.0960 N.3    18  PRO18      -0.2102
      2  CA        -2.5880   90.7760   50.1930 C.3    18  PRO18       0.1504
      3  C         -1.3800   89.9330   50.6020 C.2    18  PRO18       0.2576
      4  O         -1.5100   88.9790   51.3720 O.2    18  PRO18      -0.2718
      5  CB        -2.9790   91.8020   51.2550 C.3    18  PRO18       0.0282
      6  CG        -3.8460   90.9980   52.1740 C.3    18  PRO18       0.0208
      7  CD        -4.7180   90.2260   51.2050 C.3    18  PRO18       0.0893
      8  N         -0.2110   90.2840   50.0780 N.am   19  VAL19      -0.1966
      9  CA         1.0150   89.5600   50.3890 C.3    19  VAL19       0.1727
     10  C          2.2350   90.4260   50.0960 C.2    19  VAL19       0.2616
     11  O          2.4680   90.8250   48.9550 O.2    19  VAL19      -0.2715
     12  CB         1.1050   88.2410   49.5670 C.3    19  VAL19       0.0290
     13  CG1        0.8800   88.5270   48.0860 C.3    19  VAL19       0.0023
     14  CG2        2.4610   87.5740   49.7920 C.3    19  VAL19       0.0023
     15  N          3.0040   90.7130   51.1410 N.am   20  LEU20      -0.1963
     16  CA         4.2050   91.5320   51.0280 C.3    20  LEU20       0.1728
     17  C          3.9980   92.7800   50.1650 C.2    20  LEU20       0.2616
     18  O          4.7070   92.9930   49.1830 O.2    20  LEU20      -0.2715
     19  CB         5.3550   90.6950   50.4620 C.3    20  LEU20       0.0311
     20  CG         5.6660   89.3970   51.2130 C.3    20  LEU20       0.0022
     21  CD1        6.9120   88.7570   50.6350 C.3    20  LEU20       0.0001
     22  CD2        5.8520   89.6920   52.6950 C.3    20  LEU20       0.0001
     23  N          3.0160   93.5960   50.5310 N.am   21  SER21      -0.1950
     24  CA         2.7260   94.8330   49.8080 C.3    21  SER21       0.1924
     25  C          2.1630   94.6430   48.4030 C.2    21  SER21       0.2314
     26  O          2.1280   95.5900   47.6170 O.2    21  SER21      -0.2863
     27  CB         3.9830   95.7060   49.7310 C.3    21  SER21       0.2116
     28  OG         4.4360   96.0460   51.0320 O.3    21  SER21      -0.2180
     29  N         -1.4430   78.3820   59.5440 N.3   125  ASP125     -0.1239
     30  CA        -0.7950   79.6240   59.1400 C.3   125  ASP125      0.1674
     31  C          0.5860   79.3330   58.5790 C.2   125  ASP125      0.2266
     32  O          1.0600   80.0280   57.6800 O.2   125  ASP125     -0.2867
     33  CB        -0.6520   80.5890   60.3230 C.3   125  ASP125      0.1410
     34  CG        -1.9900   81.0010   60.9060 C.2   125  ASP125      0.3668
     35  OD1       -2.9400   81.2310   60.1310 O.co2 125  ASP125     -0.2456
     36  OD2       -2.0890   81.1040   62.1440 O.co2 125  ASP125     -0.2456
     37  N          0.5680   78.6560   54.7900 N.3   128  ASN128     -0.1240
     38  CA         0.0240   79.6850   53.9010 C.3   128  ASN128      0.1653
     39  C          0.8950   79.7650   52.6510 C.2   128  ASN128      0.2266
     40  O          2.0400   80.2090   52.7140 O.2   128  ASN128     -0.2867
     41  CB         0.0210   81.0420   54.6020 C.3   128  ASN128      0.1155
     42  CG        -0.8890   82.0500   53.9210 C.2   128  ASN128      0.2627
     43  OD1       -1.1230   81.9870   52.7090 O.2   128  ASN128     -0.2716
     44  ND2       -1.3980   83.0000   54.7000 N.am  128  ASN128     -0.0877
     45  N          0.7380   81.7470   50.0140 N.3   130  LYS130     -0.1231
     46  CA         0.8580   83.0050   49.2840 C.3   130  LYS130      0.1693
     47  C          2.2780   83.5550   49.1490 C.2   130  LYS130      0.2592
     48  O          2.6290   84.1110   48.1070 O.2   130  LYS130     -0.2718
     49  CB        -0.0560   84.0670   49.9010 C.3   130  LYS130      0.0285
     50  CG         0.3860   84.5800   51.2500 C.3   130  LYS130      0.0035
     51  CD        -0.6440   85.5390   51.7890 C.3   130  LYS130      0.0206
     52  CE        -0.1720   86.2130   53.0540 C.3   130  LYS130      0.1093
     53  NZ        -1.1990   87.1840   53.5200 N.3   130  LYS130     -0.1314
     54  N          3.0990   83.4000   50.1820 N.am  131  TYR131     -0.1976
     55  CA         4.4640   83.9120   50.1170 C.3   131  TYR131      0.1639
     56  C          5.2860   83.1930   49.0540 C.2   131  TYR131      0.2290
     57  O          5.9840   83.8200   48.2590 O.2   131  TYR131     -0.2864
     58  CB         5.1420   83.7700   51.4790 C.3   131  TYR131      0.0560
     59  CG         4.3490   84.3840   52.6060 C.ar  131  TYR131     -0.0198
     60  CD1        4.2100   85.7720   52.7160 C.ar  131  TYR131     -0.0009
     61  CD2        3.7130   83.5780   53.5470 C.ar  131  TYR131     -0.0009
     62  CE1        3.4530   86.3370   53.7410 C.ar  131  TYR131      0.0417
     63  CE2        2.9570   84.1280   54.5700 C.ar  131  TYR131      0.0417
     64  CZ         2.8310   85.5060   54.6640 C.ar  131  TYR131      0.1957
     65  OH         2.0910   86.0380   55.6910 O.3   131  TYR131     -0.2866
     66  N          7.8060   82.4340   55.8760 N.3   447  LEU447     -0.1245
     67  CA         7.2960   83.2580   56.9690 C.3   447  LEU447      0.1561
     68  C          8.3120   84.3180   57.4260 C.2   447  LEU447      0.2260
     69  O          7.9320   85.4140   57.8320 O.2   447  LEU447     -0.2867
     70  CB         6.8800   82.3770   58.1520 C.3   447  LEU447      0.0270
     71  CG         5.5420   81.6330   58.0130 C.3   447  LEU447      0.0019
     72  CD1        4.4090   82.6330   58.0200 C.3   447  LEU447      0.0001
     73  CD2        5.5120   80.8230   56.7270 C.3   447  LEU447      0.0001
     74  N          8.0260   88.0420   56.6180 N.3   450  VAL450     -0.1245
     75  CA         7.0310   88.8790   57.2820 C.3   450  VAL450      0.1561
     76  C          7.6090   89.5200   58.5490 C.2   450  VAL450      0.2260
     77  O          7.7660   88.8600   59.5810 O.2   450  VAL450     -0.2867
     78  CB         5.7870   88.0490   57.6570 C.3   450  VAL450      0.0252
     79  CG1        4.6950   88.9580   58.1940 C.3   450  VAL450      0.0019
     80  CG2        5.2960   87.2730   56.4450 C.3   450  VAL450      0.0019
     81  N          6.5140   91.3420   60.9570 N.3   452  GLU452     -0.1231
     82  CA         5.7810   91.1530   62.2040 C.3   452  GLU452      0.1699
     83  C          6.1650   89.8840   62.9540 C.2   452  GLU452      0.2592
     84  O          6.0730   89.8370   64.1820 O.2   452  GLU452     -0.2718
     85  CB         4.2750   91.1440   61.9390 C.3   452  GLU452      0.0402
     86  CG         3.7810   92.3410   61.1440 C.3   452  GLU452      0.1161
     87  CD         4.0360   92.2080   59.6490 C.2   452  GLU452      0.3649
     88  OE1        3.2710   91.4820   58.9740 O.co2 452  GLU452     -0.2457
     89  OE2        5.0030   92.8250   59.1520 O.co2 452  GLU452     -0.2457
     90  N          6.5750   88.8490   62.2230 N.am  453  LEU453     -0.1980
     91  CA         6.9740   87.5920   62.8570 C.3   453  LEU453      0.1596
     92  C          8.3760   87.7020   63.4360 C.2   453  LEU453      0.2287
     93  O          8.8930   86.7620   64.0320 O.2   453  LEU453     -0.2864
     94  CB         6.9180   86.4310   61.8630 C.3   453  LEU453      0.0297
     95  CG         5.5410   85.8360   61.5470 C.3   453  LEU453      0.0022
     96  CD1        4.5020   86.2910   62.5720 C.3   453  LEU453      0.0001
     97  CD2        5.1270   86.2610   60.1690 C.3   453  LEU453      0.0001
@<TRIPOS>BOND
     1    26    25    2
     2    13    12    1
     3    48    47    2
     4    57    56    2
     5    25    24    1
     6    11    10    2
     7    56    55    1
     8    47    46    1
     9    47    54   am
    10    18    17    2
    11    46    49    1
    12    46    45    1
    13    12    14    1
    14    12     9    1
    15    27    24    1
    16    27    28    1
    17    24    23    1
    18    49    50    1
    19     8     9    1
    20     8     3   am
    21    10     9    1
    22    10    15   am
    23     1     2    1
    24     1     7    1
    25    55    54    1
    26    55    58    1
    27    17    23   am
    28    17    16    1
    29     2     3    1
    30     2     5    1
    31    19    16    1
    32    19    20    1
    33     3     4    2
    34    21    20    1
    35    16    15    1
    36     7     6    1
    37    20    22    1
    38    50    51    1
    39     5     6    1
    40    58    59    1
    41    51    52    1
    42    59    60   ar
    43    59    61   ar
    44    39    40    2
    45    39    38    1
    46    43    42    2
    47    60    62   ar
    48    52    53    1
    49    61    63   ar
    50    62    64   ar
    51    38    41    1
    52    38    37    1
    53    42    41    1
    54    42    44   am
    55    63    64   ar
    56    64    65    1
    57    66    67    1
    58    80    78    1
    59    74    75    1
    60    73    71    1
    61    67    68    1
    62    67    70    1
    63    75    78    1
    64    75    76    1
    65    68    69    2
    66    78    79    1
    67    32    31    2
    68    71    72    1
    69    71    70    1
    70    76    77    2
    71    31    30    1
    72    88    87   ar
    73    30    29    1
    74    30    33    1
    75    89    87   ar
    76    87    86    1
    77    35    34   ar
    78    97    95    1
    79    33    34    1
    80    34    36   ar
    81    81    82    1
    82    86    85    1
    83    95    94    1
    84    95    96    1
    85    94    91    1
    86    85    82    1
    87    82    83    1
    88    90    91    1
    89    90    83   am
    90    91    92    1
    91    83    84    2
    92    92    93    2
