@<TRIPOS>MOLECULE
tmp/2cekA00.pdb
 241 240 0 0 0
SMALL
GASTEIGER

@<TRIPOS>ATOM
      1  N         -7.3550   64.1470   66.4380 N.3    67  TYR67      -0.1241
      2  CA        -7.0110   64.3400   67.8370 C.3    67  TYR67       0.1605
      3  C         -6.4620   65.7590   67.9340 C.2    67  TYR67       0.2264
      4  O         -5.7760   66.2240   67.0200 O.2    67  TYR67      -0.2867
      5  CB        -5.9200   63.3520   68.2420 C.3    67  TYR67       0.0534
      6  CG        -5.4150   63.5170   69.6590 C.ar   67  TYR67      -0.0201
      7  CD1       -6.1300   63.0030   70.7400 C.ar   67  TYR67      -0.0009
      8  CD2       -4.2130   64.1800   69.9170 C.ar   67  TYR67      -0.0009
      9  CE1       -5.6590   63.1370   72.0480 C.ar   67  TYR67       0.0417
     10  CE2       -3.7320   64.3240   71.2230 C.ar   67  TYR67       0.0417
     11  CZ        -4.4600   63.7990   72.2810 C.ar   67  TYR67       0.1957
     12  OH        -3.9910   63.9260   73.5720 O.3    67  TYR67      -0.2866
     13  N         -4.1450   68.4170   70.1620 N.3    69  ASP69      -0.1239
     14  CA        -3.1210   68.5670   71.1900 C.3    69  ASP69       0.1674
     15  C         -3.4940   69.6430   72.2050 C.2    69  ASP69       0.2266
     16  O         -3.6490   70.8060   71.8510 O.2    69  ASP69      -0.2867
     17  CB        -1.7850   68.9130   70.5220 C.3    69  ASP69       0.1410
     18  CG        -0.6700   69.1730   71.5230 C.2    69  ASP69       0.3668
     19  OD1       -0.8110   68.8070   72.7070 O.co2  69  ASP69      -0.2456
     20  OD2        0.3630   69.7340   71.1140 O.co2  69  ASP69      -0.2456
     21  N          2.7510   74.6080   70.1520 N.3    78  SER78      -0.1217
     22  CA         1.9310   73.4410   69.8610 C.3    78  SER78       0.1889
     23  C          0.6190   73.7860   69.1560 C.2    78  SER78       0.2288
     24  O          0.1540   73.0220   68.3120 O.2    78  SER78      -0.2866
     25  CB         1.6320   72.6730   71.1520 C.3    78  SER78       0.2089
     26  OG         1.0490   73.5220   72.1240 O.3    78  SER78      -0.2183
     27  N          0.0240   73.7580   65.2440 N.3    81  TRP81      -0.1241
     28  CA        -0.1550   72.5070   64.5130 C.3    81  TRP81       0.1605
     29  C         -1.5870   71.9940   64.6100 C.2    81  TRP81       0.2264
     30  O         -1.9820   71.1110   63.8530 O.2    81  TRP81      -0.2867
     31  CB         0.8040   71.4280   65.0460 C.3    81  TRP81       0.0550
     32  CG         2.2550   71.8350   65.0110 C.ar   81  TRP81       0.0003
     33  CD1        3.0450   72.1450   66.0800 C.ar   81  TRP81       0.0946
     34  CD2        3.0700   72.0120   63.8440 C.ar   81  TRP81       0.0152
     35  NE1        4.3050   72.5060   65.6510 N.ar   81  TRP81      -0.2442
     36  CE2        4.3450   72.4330   64.2830 C.ar   81  TRP81       0.0810
     37  CE3        2.8460   71.8600   62.4700 C.ar   81  TRP81       0.0012
     38  CZ2        5.3950   72.7030   63.3960 C.ar   81  TRP81       0.0191
     39  CZ3        3.8920   72.1300   61.5850 C.ar   81  TRP81       0.0001
     40  CH2        5.1490   72.5470   62.0560 C.ar   81  TRP81       0.0015
     41  N          1.9330   66.9090   57.0940 N.3   114  GLY114     -0.1210
     42  CA         2.2890   65.7820   57.9340 C.3   114  GLY114      0.1956
     43  C          1.3620   65.7480   59.1370 C.2   114  GLY114      0.2612
     44  O          0.3040   66.3860   59.1370 O.2   114  GLY114     -0.2717
     45  N          1.7610   65.0160   60.1700 N.am  115  GLY115     -0.1956
     46  CA         0.9420   64.9030   61.3630 C.3   115  GLY115      0.1869
     47  C          0.7630   63.4430   61.7430 C.2   115  GLY115      0.2309
     48  O         -0.2920   63.0480   62.2420 O.2   115  GLY115     -0.2863
     49  N         -2.2920   60.8460   61.7010 N.3   118  TYR118     -0.1227
     50  CA        -3.4120   60.8770   62.6410 C.3   118  TYR118      0.1736
     51  C         -3.9510   62.2990   62.8210 C.2   118  TYR118      0.2596
     52  O         -4.9820   62.5080   63.4700 O.2   118  TYR118     -0.2718
     53  CB        -2.9870   60.3110   64.0040 C.3   118  TYR118      0.0548
     54  CG        -2.1170   61.2430   64.8220 C.ar  118  TYR118     -0.0200
     55  CD1       -2.6770   62.2940   65.5460 C.ar  118  TYR118     -0.0009
     56  CD2       -0.7300   61.0940   64.8420 C.ar  118  TYR118     -0.0009
     57  CE1       -1.8750   63.1830   66.2730 C.ar  118  TYR118      0.0417
     58  CE2        0.0800   61.9690   65.5630 C.ar  118  TYR118      0.0417
     59  CZ        -0.4970   63.0120   66.2750 C.ar  118  TYR118      0.1957
     60  OH         0.3020   63.8790   66.9870 O.3   118  TYR118     -0.2866
     61  N         -3.2400   63.2720   62.2590 N.am  119  SER119     -0.1952
     62  CA        -3.6410   64.6710   62.3530 C.3   119  SER119      0.1924
     63  C         -3.0640   65.4580   61.1820 C.2   119  SER119      0.2314
     64  O         -2.3890   64.8940   60.3180 O.2   119  SER119     -0.2863
     65  CB        -3.1500   65.2800   63.6680 C.3   119  SER119      0.2116
     66  OG        -1.7350   65.2710   63.7290 O.3   119  SER119     -0.2180
     67  N          1.3900   76.9810   56.7490 N.3   127  TYR127     -0.1241
     68  CA         1.3000   76.4060   55.3990 C.3   127  TYR127      0.1605
     69  C          0.7140   77.3950   54.3880 C.2   127  TYR127      0.2264
     70  O          0.3940   77.0150   53.2620 O.2   127  TYR127     -0.2867
     71  CB         0.4380   75.1380   55.3700 C.3   127  TYR127      0.0534
     72  CG         0.8880   74.0010   56.2610 C.ar  127  TYR127     -0.0201
     73  CD1        2.2310   73.8320   56.6160 C.ar  127  TYR127     -0.0009
     74  CD2       -0.0380   73.0690   56.7300 C.ar  127  TYR127     -0.0009
     75  CE1        2.6330   72.7590   57.4250 C.ar  127  TYR127      0.0417
     76  CE2        0.3500   72.0010   57.5250 C.ar  127  TYR127      0.0417
     77  CZ         1.6820   71.8480   57.8730 C.ar  127  TYR127      0.1957
     78  OH         2.0330   70.7870   58.6800 O.3   127  TYR127     -0.2866
     79  N          6.1020   67.2240   54.4710 N.3   196  GLU196     -0.1231
     80  CA         7.0140   67.0210   55.5910 C.3   196  GLU196      0.1699
     81  C          6.4790   65.9640   56.5480 C.2   196  GLU196      0.2592
     82  O          5.2660   65.8570   56.7660 O.2   196  GLU196     -0.2718
     83  CB         7.2190   68.3520   56.3310 C.3   196  GLU196      0.0402
     84  CG         8.1920   68.3170   57.5000 C.3   196  GLU196      0.1161
     85  CD         7.5350   67.9290   58.8150 C.2   196  GLU196      0.3649
     86  OE1        6.2860   67.8950   58.8680 O.co2 196  GLU196     -0.2457
     87  OE2        8.2660   67.6720   59.8030 O.co2 196  GLU196     -0.2457
     88  N          7.4000   65.1840   57.1080 N.am  197  SER197     -0.1952
     89  CA         7.0610   64.1140   58.0400 C.3   197  SER197      0.1924
     90  C          6.1240   63.1060   57.3450 C.2   197  SER197      0.2314
     91  O          6.4660   62.5930   56.2850 O.2   197  SER197     -0.2863
     92  CB         6.4240   64.7170   59.2950 C.3   197  SER197      0.2116
     93  OG         6.4500   63.7890   60.3670 O.3   197  SER197     -0.2180
     94  N        -11.8260   58.9080   67.9760 N.3   272  ILE272     -0.1231
     95  CA       -10.6350   59.6200   68.4150 C.3   272  ILE272      0.1692
     96  C        -10.3400   59.3920   69.9040 C.2   272  ILE272      0.2592
     97  O         -9.1800   59.2960   70.3050 O.2   272  ILE272     -0.2718
     98  CB       -10.7830   61.1290   68.1220 C.3   272  ILE272      0.0266
     99  CG1      -10.9010   61.3390   66.6090 C.3   272  ILE272      0.0019
    100  CG2       -9.5910   61.9020   68.6710 C.3   272  ILE272      0.0020
    101  CD1      -11.2460   62.7580   66.2050 C.3   272  ILE272      0.0001
    102  N        -11.3840   59.2800   70.7190 N.am  273  ASP273     -0.1974
    103  CA       -11.1940   59.0650   72.1480 C.3   273  ASP273      0.1709
    104  C        -10.4520   57.7740   72.5120 C.2   273  ASP273      0.2293
    105  O         -9.8160   57.7110   73.5640 O.2   273  ASP273     -0.2864
    106  CB       -12.5410   59.0940   72.8790 C.3   273  ASP273      0.1436
    107  CG       -13.0730   60.4990   73.0740 C.2   273  ASP273      0.3671
    108  OD1      -12.2910   61.4670   72.9400 O.co2 273  ASP273     -0.2456
    109  OD2      -14.2740   60.6350   73.3790 O.co2 273  ASP273     -0.2456
    110  N         -8.5970   55.9300   69.9210 N.3   275  GLU275     -0.1231
    111  CA        -7.6270   55.6930   68.8600 C.3   275  GLU275      0.1699
    112  C         -6.2380   55.2280   69.3150 C.2   275  GLU275      0.2592
    113  O         -5.6400   54.3440   68.6980 O.2   275  GLU275     -0.2718
    114  CB        -7.4940   56.9610   68.0120 C.3   275  GLU275      0.0402
    115  CG        -6.4330   56.9030   66.9220 C.3   275  GLU275      0.1161
    116  CD        -6.3940   58.1720   66.0870 C.2   275  GLU275      0.3649
    117  OE1       -5.4130   58.3650   65.3410 O.co2 275  GLU275     -0.2457
    118  OE2       -7.3450   58.9770   66.1740 O.co2 275  GLU275     -0.2457
    119  N         -5.7230   55.8100   70.3910 N.am  276  TRP276     -0.1962
    120  CA        -4.3950   55.4380   70.8620 C.3   276  TRP276      0.1771
    121  C         -4.3260   54.1630   71.6930 C.2   276  TRP276      0.2619
    122  O         -3.2360   53.7190   72.0420 O.2   276  TRP276     -0.2715
    123  CB        -3.7600   56.5940   71.6480 C.3   276  TRP276      0.0590
    124  CG        -2.4990   57.0990   71.0140 C.ar  276  TRP276      0.0006
    125  CD1       -1.3020   57.3350   71.6350 C.ar  276  TRP276      0.0946
    126  CD2       -2.2960   57.4010   69.6270 C.ar  276  TRP276      0.0152
    127  NE1       -0.3680   57.7610   70.7180 N.ar  276  TRP276     -0.2442
    128  CE2       -0.9510   57.8110   69.4790 C.ar  276  TRP276      0.0810
    129  CE3       -3.1210   57.3620   68.4920 C.ar  276  TRP276      0.0012
    130  CZ2       -0.4100   58.1810   68.2400 C.ar  276  TRP276      0.0191
    131  CZ3       -2.5850   57.7290   67.2600 C.ar  276  TRP276      0.0001
    132  CH2       -1.2400   58.1340   67.1460 C.ar  276  TRP276      0.0015
    133  N         -5.4710   53.5580   72.0000 N.am  277  ASN277     -0.1972
    134  CA        -5.4670   52.3370   72.8030 C.3   277  ASN277      0.1688
    135  C         -5.1410   51.0720   72.0200 C.2   277  ASN277      0.2292
    136  O         -5.0150   50.0020   72.6060 O.2   277  ASN277     -0.2864
    137  CB        -6.8160   52.1460   73.5110 C.3   277  ASN277      0.1181
    138  CG        -7.1330   53.2720   74.4760 C.2   277  ASN277      0.2629
    139  OD1       -6.2330   53.9370   74.9850 O.2   277  ASN277     -0.2716
    140  ND2       -8.4170   53.4810   74.7460 N.am  277  ASN277     -0.0877
    141  N          2.1930   55.4770   65.4540 N.3   287  PHE287     -0.1241
    142  CA         0.8220   55.9340   65.3230 C.3   287  PHE287      0.1605
    143  C         -0.0720   54.7520   64.9860 C.2   287  PHE287      0.2264
    144  O          0.3460   53.8070   64.3150 O.2   287  PHE287     -0.2867
    145  CB         0.7800   57.0140   64.2390 C.3   287  PHE287      0.0534
    146  CG         1.8970   58.0170   64.3570 C.ar  287  PHE287     -0.0203
    147  CD1        1.9380   58.9120   65.4200 C.ar  287  PHE287     -0.0042
    148  CD2        2.9490   58.0180   63.4430 C.ar  287  PHE287     -0.0042
    149  CE1        3.0120   59.7900   65.5740 C.ar  287  PHE287     -0.0003
    150  CE2        4.0260   58.8920   63.5900 C.ar  287  PHE287     -0.0003
    151  CZ         4.0580   59.7770   64.6560 C.ar  287  PHE287     -0.0000
    152  N         10.8020   66.4850   70.0150 N.3   327  PHE327     -0.1227
    153  CA         9.3870   66.7040   70.2940 C.3   327  PHE327      0.1736
    154  C          8.6870   65.4950   70.8990 C.2   327  PHE327      0.2595
    155  O          7.9450   65.6290   71.8710 O.2   327  PHE327     -0.2718
    156  CB         8.6390   67.1420   69.0240 C.3   327  PHE327      0.0547
    157  CG         8.3670   66.0240   68.0530 C.ar  327  PHE327     -0.0202
    158  CD1        9.3950   65.4690   67.2980 C.ar  327  PHE327     -0.0042
    159  CD2        7.0720   65.5300   67.8910 C.ar  327  PHE327     -0.0042
    160  CE1        9.1400   64.4420   66.3940 C.ar  327  PHE327     -0.0003
    161  CE2        6.8060   64.5030   66.9900 C.ar  327  PHE327     -0.0003
    162  CZ         7.8420   63.9570   66.2380 C.ar  327  PHE327     -0.0000
    163  N          8.9150   64.3130   70.3360 N.am  328  PHE328     -0.1976
    164  CA         8.2580   63.1330   70.8680 C.3   328  PHE328      0.1639
    165  C          8.7700   62.7470   72.2480 C.2   328  PHE328      0.2290
    166  O          8.0240   62.1800   73.0490 O.2   328  PHE328     -0.2864
    167  CB         8.3840   61.9470   69.9100 C.3   328  PHE328      0.0560
    168  CG         7.0740   61.2540   69.6480 C.ar  328  PHE328     -0.0200
    169  CD1        6.4960   61.2810   68.3830 C.ar  328  PHE328     -0.0042
    170  CD2        6.3910   60.6140   70.6820 C.ar  328  PHE328     -0.0042
    171  CE1        5.2560   60.6830   68.1570 C.ar  328  PHE328     -0.0003
    172  CE2        5.1540   60.0150   70.4620 C.ar  328  PHE328     -0.0003
    173  CZ         4.5860   60.0480   69.2030 C.ar  328  PHE328     -0.0000
    174  N          6.8730   64.8960   74.6970 N.3   331  TYR331     -0.1241
    175  CA         5.5110   64.4160   74.8840 C.3   331  TYR331      0.1605
    176  C          5.3390   63.0230   75.4670 C.2   331  TYR331      0.2264
    177  O          4.3270   62.7640   76.1150 O.2   331  TYR331     -0.2867
    178  CB         4.7450   64.4750   73.5610 C.3   331  TYR331      0.0534
    179  CG         4.2560   65.8510   73.1710 C.ar  331  TYR331     -0.0201
    180  CD1        2.9020   66.1820   73.2500 C.ar  331  TYR331     -0.0009
    181  CD2        5.1400   66.8150   72.6900 C.ar  331  TYR331     -0.0009
    182  CE1        2.4400   67.4400   72.8500 C.ar  331  TYR331      0.0417
    183  CE2        4.6910   68.0710   72.2910 C.ar  331  TYR331      0.0417
    184  CZ         3.3410   68.3770   72.3720 C.ar  331  TYR331      0.1957
    185  OH         2.9030   69.6180   71.9680 O.3   331  TYR331     -0.2866
    186  N         10.0240   77.1250   71.7440 N.3   429  TRP429     -0.1241
    187  CA        10.3280   75.8830   72.4540 C.3   429  TRP429      0.1605
    188  C         11.6760   76.0080   73.1630 C.2   429  TRP429      0.2264
    189  O         12.5250   76.7980   72.7570 O.2   429  TRP429     -0.2867
    190  CB        10.3760   74.7050   71.4710 C.3   429  TRP429      0.0550
    191  CG         9.0520   74.3570   70.8630 C.ar  429  TRP429      0.0003
    192  CD1        8.6170   74.6540   69.5990 C.ar  429  TRP429      0.0946
    193  CD2        7.9900   73.6350   71.4940 C.ar  429  TRP429      0.0152
    194  NE1        7.3470   74.1560   69.4040 N.ar  429  TRP429     -0.2442
    195  CE2        6.9390   73.5260   70.5510 C.ar  429  TRP429      0.0810
    196  CE3        7.8210   73.0690   72.7650 C.ar  429  TRP429      0.0012
    197  CZ2        5.7350   72.8700   70.8410 C.ar  429  TRP429      0.0191
    198  CZ3        6.6180   72.4160   73.0550 C.ar  429  TRP429      0.0001
    199  CH2        5.5940   72.3230   72.0940 C.ar  429  TRP429      0.0015
    200  N         15.6130   71.3590   72.9250 N.3   433  MET433     -0.1245
    201  CA        14.9510   70.6990   71.8070 C.3   433  MET433      0.1570
    202  C         15.6480   70.9300   70.4680 C.2   433  MET433      0.2261
    203  O         15.3750   70.2170   69.5020 O.2   433  MET433     -0.2867
    204  CB        13.4850   71.1280   71.7370 C.3   433  MET433      0.0387
    205  CG        12.6540   70.5550   72.8790 C.3   433  MET433      0.0595
    206  SD        10.9410   71.1050   72.9170 S.3   433  MET433     -0.1393
    207  CE        10.2100   70.0360   71.6610 C.3   433  MET433      0.0692
    208  N         14.0280   71.5630   65.7940 N.3   436  ILE436     -0.1231
    209  CA        12.8460   70.7240   65.8700 C.3   436  ILE436      0.1692
    210  C         12.1740   70.2310   64.6110 C.2   436  ILE436      0.2592
    211  O         12.1660   70.9010   63.5850 O.2   436  ILE436     -0.2718
    212  CB        11.8170   71.4370   66.7560 C.3   436  ILE436      0.0266
    213  CG1       12.5180   71.8070   68.0680 C.3   436  ILE436      0.0019
    214  CG2       10.5850   70.5790   66.9660 C.3   436  ILE436      0.0020
    215  CD1       11.7900   72.7840   68.9170 C.3   436  ILE436      0.0001
    216  N         11.5990   69.0340   64.7480 N.am  437  HIS437     -0.1962
    217  CA        10.8650   68.3330   63.7120 C.3   437  HIS437      0.1787
    218  C          9.7800   69.2780   63.2560 C.2   437  HIS437      0.2621
    219  O          8.9550   69.7100   64.0590 O.2   437  HIS437     -0.2715
    220  CB        10.2350   67.0680   64.3070 C.3   437  HIS437      0.0785
    221  CG         9.5530   66.1870   63.3060 C.ar  437  HIS437      0.0821
    222  ND1       10.2110   65.6390   62.2240 N.ar  437  HIS437     -0.2267
    223  CD2        8.2880   65.7050   63.2610 C.ar  437  HIS437      0.1154
    224  CE1        9.3810   64.8530   61.5610 C.ar  437  HIS437      0.1986
    225  NE2        8.2090   64.8740   62.1700 N.ar  437  HIS437     -0.2212
    226  N          9.8040   69.6190   61.9740 N.am  438  GLY438     -0.1940
    227  CA         8.8030   70.5110   61.4230 C.3   438  GLY438      0.2014
    228  C          9.1570   71.9800   61.3790 C.2   438  GLY438      0.2638
    229  O          8.4490   72.7680   60.7420 O.2   438  GLY438     -0.2714
    230  N         10.2550   72.3760   62.0130 N.am  439  TYR439     -0.1973
    231  CA        10.5800   73.7890   62.0020 C.3   439  TYR439      0.1639
    232  C         11.3900   74.3320   60.8480 C.2   439  TYR439      0.2290
    233  O         11.9450   75.4230   60.9320 O.2   439  TYR439     -0.2864
    234  CB        11.1530   74.2110   63.3650 C.3   439  TYR439      0.0560
    235  CG        10.0420   74.3040   64.3940 C.ar  439  TYR439     -0.0198
    236  CD1        9.4610   73.1520   64.9310 C.ar  439  TYR439     -0.0009
    237  CD2        9.4440   75.5280   64.6840 C.ar  439  TYR439     -0.0009
    238  CE1        8.2990   73.2200   65.7230 C.ar  439  TYR439      0.0417
    239  CE2        8.2900   75.6050   65.4670 C.ar  439  TYR439      0.0417
    240  CZ         7.7230   74.4510   65.9750 C.ar  439  TYR439      0.1957
    241  OH         6.5520   74.5280   66.6900 O.3   439  TYR439     -0.2866
@<TRIPOS>BOND
     1    70    69    2
     2    69    68    1
     3    79    80    1
     4    71    68    1
     5    71    72    1
     6    68    67    1
     7    80    83    1
     8    80    81    1
     9    72    73   ar
    10    72    74   ar
    11    91    90    2
    12    83    84    1
    13    81    82    2
    14    81    88   am
    15    73    75   ar
    16    74    76   ar
    17    41    42    1
    18    88    89    1
    19    90    89    1
    20    75    77   ar
    21    84    85    1
    22    76    77   ar
    23    77    78    1
    24    42    43    1
    25    89    92    1
    26    85    86   ar
    27    85    87   ar
    28    43    44    2
    29    43    45   am
    30    92    93    1
    31    45    46    1
    32    64    63    2
    33   229   228    2
    34   232   233    2
    35   232   231    1
    36    63    62    1
    37    46    47    1
    38   228   227    1
    39   228   230   am
    40   227   226    1
    41   224   225   ar
    42   224   222   ar
    43    39    40   ar
    44    39    37   ar
    45    49    50    1
    46    47    48    2
    47   226   218   am
    48   231   230    1
    49   231   234    1
    50    40    38   ar
    51   225   223   ar
    52   222   221   ar
    53    61    62    1
    54    61    51   am
    55    62    65    1
    56    37    34   ar
    57    50    51    1
    58    50    53    1
    59    51    52    2
    60   218   217    1
    61   218   219    2
    62   223   221   ar
    63   221   220    1
    64   234   235    1
    65    38    36   ar
    66   148   150   ar
    67   148   146   ar
    68   211   210    2
    69   150   151   ar
    70    65    66    1
    71   217   220    1
    72   217   216    1
    73    34    36   ar
    74    34    32   ar
    75    30    29    2
    76    53    54    1
    77   145   146    1
    78   145   142    1
    79    36    35   ar
    80   144   143    2
    81   146   147   ar
    82   235   237   ar
    83   235   236   ar
    84    28    29    1
    85    28    31    1
    86    28    27    1
    87   210   216   am
    88   210   209    1
    89   151   149   ar
    90   237   239   ar
    91    54    56   ar
    92    54    55   ar
    93    56    58   ar
    94   236   238   ar
    95   143   142    1
    96    32    31    1
    97    32    33   ar
    98   142   141    1
    99   117   116   ar
   100   147   149   ar
   101   239   240   ar
   102    55    57   ar
   103    58    59   ar
   104    35    33   ar
   105   238   240   ar
   106   208   209    1
   107   209   212    1
   108   240   241    1
   109   116   118   ar
   110   116   115    1
   111   101    99    1
   112   162   160   ar
   113   162   161   ar
   114    57    59   ar
   115    59    60    1
   116   160   158   ar
   117     1     2    1
   118    99    98    1
   119   212   214    1
   120   212   213    1
   121   115   114    1
   122   161   159   ar
   123     4     3    2
   124   132   131   ar
   125   132   130   ar
   126   131   129   ar
   127   158   157   ar
   128     2     3    1
   129     2     5    1
   130   159   157   ar
   131    94    95    1
   132   114   111    1
   133   157   156    1
   134   213   215    1
   135    98    95    1
   136    98   100    1
   137   171   169   ar
   138   171   173   ar
   139   130   128   ar
   140     5     6    1
   141    24    23    2
   142   169   168   ar
   143    95    96    1
   144   129   126   ar
   145   113   112    2
   146   111   112    1
   147   111   110    1
   148   156   153    1
   149    23    22    1
   150   173   172   ar
   151   112   119   am
   152   194   192   ar
   153   194   195   ar
   154   128   126   ar
   155   128   127   ar
   156   203   202    2
   157   192   191   ar
   158   126   124   ar
   159   168   167    1
   160   168   170   ar
   161     6     8   ar
   162     6     7   ar
   163    22    21    1
   164    22    25    1
   165    96    97    2
   166    96   102   am
   167   167   164    1
   168     8    10   ar
   169   152   153    1
   170    13    14    1
   171   153   154    1
   172   163   164    1
   173   163   154   am
   174   119   120    1
   175   172   170   ar
   176   202   201    1
   177    17    14    1
   178    17    18    1
   179   195   197   ar
   180   195   193   ar
   181   127   125   ar
   182   102   103    1
   183     7     9   ar
   184   197   199   ar
   185   120   123    1
   186   120   121    1
   187   191   190    1
   188   191   193   ar
   189   164   165    1
   190   154   155    2
   191   124   125   ar
   192   124   123    1
   193    20    18   ar
   194    25    26    1
   195    14    15    1
   196    10    11   ar
   197   190   187    1
   198   193   196   ar
   199    18    19   ar
   200   207   206    1
   201   121   133   am
   202   121   122    2
   203   204   201    1
   204   204   205    1
   205   186   187    1
   206   201   200    1
   207    16    15    2
   208   185   184    1
   209   133   134    1
   210   135   136    2
   211   135   134    1
   212     9    11   ar
   213   199   198   ar
   214   103   104    1
   215   103   106    1
   216   165   166    2
   217    11    12    1
   218   183   184   ar
   219   183   181   ar
   220   184   182   ar
   221   187   188    1
   222   104   105    2
   223   181   179   ar
   224   189   188    2
   225   196   198   ar
   226   134   137    1
   227   182   180   ar
   228   106   107    1
   229   205   206    1
   230   108   107   ar
   231   107   109   ar
   232   179   180   ar
   233   179   178    1
   234   137   138    1
   235   178   175    1
   236   138   140   am
   237   138   139    2
   238   174   175    1
   239   175   176    1
   240   176   177    2
