@<TRIPOS>MOLECULE
tmp/2cenB00.pdb
 105 98 0 0 0
SMALL
GASTEIGER

@<TRIPOS>ATOM
      1  N          8.9080   34.0530   -1.2220 N.3     8  ARG8       -0.1245
      2  CA         9.6630   32.8080   -1.3610 C.3     8  ARG8        0.1563
      3  C         10.5450   32.8890   -2.6050 C.2     8  ARG8        0.2260
      4  O         10.0940   33.3200   -3.6660 O.2     8  ARG8       -0.2867
      5  CB         8.7170   31.6150   -1.4890 C.3     8  ARG8        0.0307
      6  CG         8.0000   31.2570   -0.2080 C.3     8  ARG8        0.0489
      7  CD         7.0040   30.1280   -0.4260 C.3     8  ARG8        0.2205
      8  NE         6.2250   29.8720    0.7810 N.pl3   8  ARG8       -0.0865
      9  CZ         5.1350   29.1110    0.8250 C.cat   8  ARG8        0.5346
     10  NH1        4.6880   28.5220   -0.2770 N.pl3   8  ARG8        0.1354
     11  NH2        4.4860   28.9470    1.9690 N.pl3   8  ARG8        0.1354
     12  N         12.1020   25.9320   -5.0860 N.3    23  LEU23      -0.1245
     13  CA        12.5250   26.8310   -4.0170 C.3    23  LEU23       0.1561
     14  C         14.0320   26.7910   -3.7470 C.2    23  LEU23       0.2260
     15  O         14.5790   25.7310   -3.4460 O.2    23  LEU23      -0.2867
     16  CB        11.7730   26.4510   -2.7350 C.3    23  LEU23       0.0270
     17  CG        11.9290   27.3030   -1.4750 C.3    23  LEU23       0.0019
     18  CD1       11.2820   28.6610   -1.6900 C.3    23  LEU23       0.0001
     19  CD2       11.2700   26.5910   -0.2990 C.3    23  LEU23       0.0001
     20  N         16.7130   26.8420   -1.5260 N.3    25  ASP25      -0.1239
     21  CA        16.7360   26.6010   -0.0890 C.3    25  ASP25       0.1674
     22  C         18.1020   26.3970    0.5610 C.2    25  ASP25       0.2266
     23  O         18.6320   25.2850    0.5670 O.2    25  ASP25      -0.2867
     24  CB        15.8720   25.3680    0.1790 C.3    25  ASP25       0.1410
     25  CG        15.4340   25.2680    1.6130 C.2    25  ASP25       0.3668
     26  OD1       16.1210   25.8440    2.4820 O.co2  25  ASP25      -0.2456
     27  OD2       14.4030   24.6070    1.8620 O.co2  25  ASP25      -0.2456
     28  N         18.7760   26.1590    3.5510 N.3    27  GLY27      -0.1210
     29  CA        18.6830   25.2900    4.7140 C.3    27  GLY27       0.1956
     30  C         18.5570   23.8180    4.3590 C.2    27  GLY27       0.2612
     31  O         18.5110   22.9570    5.2380 O.2    27  GLY27      -0.2717
     32  N         18.5060   23.5250    3.0650 N.am   28  ALA28      -0.1965
     33  CA        18.3780   22.1490    2.5920 C.3    28  ALA28       0.1728
     34  C         19.7280   21.6210    2.1210 C.2    28  ALA28       0.2616
     35  O         20.3750   22.2360    1.2780 O.2    28  ALA28      -0.2715
     36  CB        17.3640   22.0940    1.4470 C.3    28  ALA28       0.0334
     37  N         20.1610   20.4850    2.6590 N.am   29  ASP29      -0.1957
     38  CA        21.4460   19.9240    2.2400 C.3    29  ASP29       0.1840
     39  C         21.3480   19.3460    0.8310 C.2    29  ASP29       0.2622
     40  O         22.2990   19.4250    0.0460 O.2    29  ASP29      -0.2715
     41  CB        21.8900   18.7960    3.1730 C.3    29  ASP29       0.1450
     42  CG        21.9810   19.2280    4.6190 C.2    29  ASP29       0.3671
     43  OD1       22.4750   20.3420    4.8820 O.co2  29  ASP29      -0.2456
     44  OD2       21.5700   18.4370    5.4950 O.co2  29  ASP29      -0.2456
     45  N         20.1880   18.7680    0.5280 N.am   30  ASP30      -0.1971
     46  CA        19.9500   18.1220   -0.7530 C.3    30  ASP30       0.1709
     47  C         18.8280   18.7610   -1.5600 C.2    30  ASP30       0.2293
     48  O         18.1250   19.6520   -1.0900 O.2    30  ASP30      -0.2864
     49  CB        19.5990   16.6430   -0.5340 C.3    30  ASP30       0.1436
     50  CG        20.5490   15.9460    0.4250 C.2    30  ASP30       0.3671
     51  OD1       21.7770   15.9980    0.1990 O.co2  30  ASP30      -0.2456
     52  OD2       20.0600   15.3340    1.4010 O.co2  30  ASP30      -0.2456
     53  N         15.3420   17.9790   -3.5480 N.3    32  VAL32      -0.1245
     54  CA        14.2660   17.0020   -3.6430 C.3    32  VAL32       0.1561
     55  C         13.1170   17.5660   -4.4540 C.2    32  VAL32       0.2260
     56  O         12.6480   18.6780   -4.2050 O.2    32  VAL32      -0.2867
     57  CB        13.7540   16.5920   -2.2510 C.3    32  VAL32       0.0252
     58  CG1       12.6600   15.5310   -2.3790 C.3    32  VAL32       0.0019
     59  CG2       14.9040   16.0500   -1.4370 C.3    32  VAL32       0.0019
     60  N         15.5310   11.4650    4.2740 N.3    47  ILE47      -0.1231
     61  CA        15.8930   12.8490    4.5400 C.3    47  ILE47       0.1692
     62  C         14.9710   13.3860    5.6240 C.2    47  ILE47       0.2593
     63  O         13.7700   13.1120    5.6290 O.2    47  ILE47      -0.2718
     64  CB        15.8020   13.7370    3.2750 C.3    47  ILE47       0.0266
     65  CG1       14.4020   13.6590    2.6630 C.3    47  ILE47       0.0019
     66  CG2       16.8750   13.3110    2.2770 C.3    47  ILE47       0.0020
     67  CD1       14.1980   14.5940    1.4870 C.3    47  ILE47       0.0001
     68  N         15.5470   14.1410    6.5500 N.am   48  GLY48      -0.1942
     69  CA        14.7610   14.6720    7.6440 C.3    48  GLY48       0.2014
     70  C         14.5230   16.1620    7.6080 C.2    48  GLY48       0.2639
     71  O         15.4200   16.9440    7.2970 O.2    48  GLY48      -0.2714
     72  N         13.2940   16.5430    7.9390 N.am   49  GLY49      -0.1939
     73  CA        12.9180   17.9410    7.9720 C.3    49  GLY49       0.2014
     74  C         12.1780   18.2440    9.2620 C.2    49  GLY49       0.2638
     75  O         12.2210   17.4620   10.2140 O.2    49  GLY49      -0.2714
     76  N         11.4820   19.3730    9.2850 N.am   50  ILE50      -0.1977
     77  CA        10.7400   19.8110   10.4630 C.3    50  ILE50       0.1596
     78  C          9.7750   18.8200   11.1080 C.2    50  ILE50       0.2287
     79  O          9.7220   18.7150   12.3370 O.2    50  ILE50      -0.2864
     80  CB         9.9890   21.1310   10.1520 C.3    50  ILE50       0.0276
     81  CG1       10.9290   22.3080   10.4090 C.3    50  ILE50       0.0022
     82  CG2        8.7120   21.2420   10.9820 C.3    50  ILE50       0.0022
     83  CD1       11.4120   22.3940   11.8350 C.3    50  ILE50       0.0001
     84  N          6.6860   18.5900    0.0310 N.3    81  PRO81      -0.2102
     85  CA         5.6370   19.6090   -0.0700 C.3    81  PRO81       0.1504
     86  C          5.8170   20.5390   -1.2660 C.2    81  PRO81       0.2575
     87  O          4.8380   21.0390   -1.8300 O.2    81  PRO81      -0.2718
     88  CB         5.7550   20.3540    1.2530 C.3    81  PRO81       0.0282
     89  CG         6.2410   19.3110    2.1870 C.3    81  PRO81       0.0208
     90  CD         7.3010   18.6120    1.3680 C.3    81  PRO81       0.0893
     91  N          7.0730   20.7780   -1.6370 N.am   82  VAL82      -0.1980
     92  CA         7.4120   21.6450   -2.7670 C.3    82  VAL82       0.1595
     93  C          8.7650   21.2290   -3.3310 C.2    82  VAL82       0.2287
     94  O          9.5410   20.5620   -2.6490 O.2    82  VAL82      -0.2864
     95  CB         7.5280   23.1310   -2.3420 C.3    82  VAL82       0.0276
     96  CG1        6.1870   23.6480   -1.8390 C.3    82  VAL82       0.0022
     97  CG2        8.5990   23.2800   -1.2700 C.3    82  VAL82       0.0022
     98  N         12.4320   21.4990   -3.9870 N.3    84  ILE84      -0.1245
     99  CA        13.4680   22.1910   -3.2390 C.3    84  ILE84       0.1561
    100  C         14.8450   22.0290   -3.8650 C.2    84  ILE84       0.2260
    101  O         15.2730   20.9120   -4.1490 O.2    84  ILE84      -0.2867
    102  CB        13.5290   21.6480   -1.7930 C.3    84  ILE84       0.0252
    103  CG1       12.2200   21.9570   -1.0690 C.3    84  ILE84       0.0019
    104  CG2       14.7320   22.2430   -1.0520 C.3    84  ILE84       0.0019
    105  CD1       12.0630   21.2090    0.2510 C.3    84  ILE84       0.0001
@<TRIPOS>BOND
     1    12    13    1
     2    55    56    2
     3    55    54    1
     4   101   100    2
     5    13    14    1
     6    13    16    1
     7    98    99    1
     8   100    99    1
     9    14    15    2
    10     4     3    2
    11    54    53    1
    12    54    57    1
    13    93    92    1
    14    93    94    2
    15    99   102    1
    16    92    95    1
    17    92    91    1
    18    16    17    1
    19     3     2    1
    20    58    57    1
    21    95    96    1
    22    95    97    1
    23    57    59    1
    24    87    86    2
    25   102   103    1
    26   102   104    1
    27    18    17    1
    28    91    86   am
    29    47    48    2
    30    47    46    1
    31    20    21    1
    32     5     2    1
    33     5     6    1
    34    17    19    1
    35     2     1    1
    36    86    85    1
    37   103   105    1
    38    46    49    1
    39    46    45    1
    40    49    50    1
    41     7     6    1
    42     7     8    1
    43    10     9    1
    44    21    24    1
    45    21    22    1
    46    85    84    1
    47    85    88    1
    48    84    90    1
    49    40    39    2
    50    24    25    1
    51    51    50   ar
    52    50    52   ar
    53    45    39   am
    54    22    23    2
    55     8     9    2
    56     9    11    1
    57    39    38    1
    58    88    89    1
    59    35    34    2
    60    90    89    1
    61    36    33    1
    62    67    65    1
    63    25    27   ar
    64    25    26   ar
    65    34    33    1
    66    34    37   am
    67    38    37    1
    68    38    41    1
    69    66    64    1
    70    33    32    1
    71    65    64    1
    72    32    30   am
    73    41    42    1
    74    64    61    1
    75    28    29    1
    76    60    61    1
    77    30    29    1
    78    30    31    2
    79    61    62    1
    80    42    43   ar
    81    42    44   ar
    82    62    63    2
    83    62    68   am
    84    68    69    1
    85    71    70    2
    86    70    69    1
    87    70    72   am
    88    72    73    1
    89    73    74    1
    90    74    76   am
    91    74    75    2
    92    76    77    1
    93    80    81    1
    94    80    77    1
    95    80    82    1
    96    81    83    1
    97    77    78    1
    98    78    79    2
