@<TRIPOS>MOLECULE
tmp/2cerB00.pdb
 161 160 0 0 0
SMALL
GASTEIGER

@<TRIPOS>ATOM
      1  N         48.3160  -34.2600    6.7260 N.3    18  GLN18      -0.1245
      2  CA        47.3200  -35.3280    6.7240 C.3    18  GLN18       0.1566
      3  C         46.0050  -34.9640    6.0150 C.2    18  GLN18       0.2260
      4  O         45.3870  -35.8090    5.3610 O.2    18  GLN18      -0.2867
      5  CB        47.0350  -35.7310    8.1600 C.3    18  GLN18       0.0367
      6  CG        48.2860  -36.0620    8.9680 C.3    18  GLN18       0.0905
      7  CD        47.9700  -36.7040   10.3180 C.2    18  GLN18       0.2608
      8  OE1       48.1280  -36.0700   11.3680 O.2    18  GLN18      -0.2717
      9  NE2       47.5050  -37.9580   10.2980 N.am   18  GLN18      -0.0878
     10  N         53.5610  -29.7070   13.0960 N.3   150  HIS150     -0.1226
     11  CA        52.9680  -31.0360   13.2290 C.3   150  HIS150      0.1752
     12  C         53.6840  -32.0170   12.3270 C.2   150  HIS150      0.2596
     13  O         53.0670  -32.6980   11.4950 O.2   150  HIS150     -0.2718
     14  CB        51.4570  -31.0160   12.9290 C.3   150  HIS150      0.0759
     15  CG        50.7180  -32.2250   13.4420 C.ar  150  HIS150      0.0818
     16  ND1       49.5640  -32.1300   14.1960 N.ar  150  HIS150     -0.2268
     17  CD2       50.9650  -33.5520   13.3040 C.ar  150  HIS150      0.1154
     18  CE1       49.1320  -33.3430   14.4950 C.ar  150  HIS150      0.1986
     19  NE2       49.9710  -34.2200   13.9760 N.ar  150  HIS150     -0.2212
     20  N         55.0110  -32.0190   12.4740 N.am  151  TRP151     -0.1976
     21  CA        55.9670  -33.0600   11.9790 C.3   151  TRP151      0.1640
     22  C         56.7940  -32.8070   10.7070 C.2   151  TRP151      0.2290
     23  O         58.0250  -32.8560   10.7920 O.2   151  TRP151     -0.2864
     24  CB        55.3940  -34.4870   12.0350 C.3   151  TRP151      0.0576
     25  CG        54.8700  -34.8260   13.3920 C.ar  151  TRP151      0.0006
     26  CD1       54.9790  -34.0740   14.5280 C.ar  151  TRP151      0.0946
     27  CD2       54.1780  -36.0170   13.7630 C.ar  151  TRP151      0.0152
     28  NE1       54.3950  -34.7240   15.5810 N.ar  151  TRP151     -0.2442
     29  CE2       53.8870  -35.9180   15.1390 C.ar  151  TRP151      0.0810
     30  CE3       53.7540  -37.1560   13.0600 C.ar  151  TRP151      0.0012
     31  CZ2       53.1770  -36.9230   15.8330 C.ar  151  TRP151      0.0191
     32  CZ3       53.0620  -38.1510   13.7510 C.ar  151  TRP151      0.0001
     33  CH2       52.7820  -38.0230   15.1200 C.ar  151  TRP151      0.0015
     34  N         53.3540  -30.0720   17.9520 N.3   205  ASN205     -0.1225
     35  CA        52.5580  -31.2540   18.2020 C.3   205  ASN205      0.1785
     36  C         53.4770  -32.4630   18.4160 C.2   205  ASN205      0.2597
     37  O         54.2110  -32.8360   17.5140 O.2   205  ASN205     -0.2718
     38  CB        51.6160  -31.5200   17.0270 C.3   205  ASN205      0.1169
     39  CG        50.8270  -32.8100   17.1960 C.2   205  ASN205      0.2627
     40  OD1       49.8690  -32.8510   17.9670 O.2   205  ASN205     -0.2716
     41  ND2       51.2390  -33.8760   16.4840 N.am  205  ASN205     -0.0877
     42  N         53.4450  -33.0380   19.6210 N.am  206  GLU206     -0.1979
     43  CA        54.1380  -34.2980   19.9680 C.3   206  GLU206      0.1602
     44  C         55.5940  -34.3930   19.5170 C.2   206  GLU206      0.2287
     45  O         55.9440  -35.2820   18.7390 O.2   206  GLU206     -0.2864
     46  CB        53.3550  -35.5240   19.4620 C.3   206  GLU206      0.0415
     47  CG        51.8920  -35.5560   19.9210 C.3   206  GLU206      0.1163
     48  CD        51.2290  -36.9000   19.6540 C.2   206  GLU206      0.3649
     49  OE1       51.6950  -37.6330   18.7560 O.co2 206  GLU206     -0.2457
     50  OE2       50.2300  -37.2170   20.3280 O.co2 206  GLU206     -0.2457
     51  N         57.4940  -37.7910   19.8770 N.3   209  VAL209     -0.1245
     52  CA        57.2790  -38.7890   18.8380 C.3   209  VAL209      0.1561
     53  C         58.2230  -38.5340   17.6530 C.2   209  VAL209      0.2260
     54  O         58.8490  -39.4800   17.1450 O.2   209  VAL209     -0.2867
     55  CB        55.7760  -38.8270   18.4080 C.3   209  VAL209      0.0252
     56  CG1       55.5650  -39.5700   17.0790 C.3   209  VAL209      0.0019
     57  CG2       54.9200  -39.4390   19.5180 C.3   209  VAL209      0.0019
     58  N         52.5640  -36.0820   23.3760 N.3   263  ALA263     -0.1231
     59  CA        52.0350  -37.4300   23.2710 C.3   263  ALA263      0.1694
     60  C         52.1430  -38.1630   24.5950 C.2   263  ALA263      0.2592
     61  O         53.2370  -38.3230   25.1680 O.2   263  ALA263     -0.2718
     62  CB        52.7510  -38.2060   22.1680 C.3   263  ALA263      0.0304
     63  N         50.9890  -38.6130   25.0640 N.am  264  ASN264     -0.1974
     64  CA        50.8490  -39.2360   26.3940 C.3   264  ASN264      0.1688
     65  C         50.2950  -40.6410   26.3200 C.2   264  ASN264      0.2292
     66  O         49.3340  -40.8980   25.6130 O.2   264  ASN264     -0.2864
     67  CB        49.8960  -38.4130   27.2810 C.3   264  ASN264      0.1181
     68  CG        50.3880  -37.0160   27.5110 C.2   264  ASN264      0.2629
     69  OD1       51.3730  -36.8080   28.2150 O.2   264  ASN264     -0.2716
     70  ND2       49.7230  -36.0480   26.9070 N.am  264  ASN264     -0.0877
     71  N         47.5130  -34.9630   24.5520 N.3   320  ASN320     -0.1240
     72  CA        47.1360  -35.9690   23.5930 C.3   320  ASN320      0.1653
     73  C         47.0430  -37.3180   24.3320 C.2   320  ASN320      0.2266
     74  O         47.9410  -37.6880   25.0970 O.2   320  ASN320     -0.2867
     75  CB        48.1550  -36.0200   22.4570 C.3   320  ASN320      0.1155
     76  CG        47.9550  -34.8920   21.4350 C.2   320  ASN320      0.2627
     77  OD1       47.1860  -33.9620   21.6660 O.2   320  ASN320     -0.2716
     78  ND2       48.6360  -34.9910   20.2890 N.am  320  ASN320     -0.0877
     79  N         45.5710  -41.5260   23.9480 N.3   322  TYR322     -0.1241
     80  CA        44.8990  -42.6010   23.1940 C.3   322  TYR322      0.1605
     81  C         44.6450  -43.8810   24.0060 C.2   322  TYR322      0.2264
     82  O         43.5310  -44.3840   24.0160 O.2   322  TYR322     -0.2867
     83  CB        45.6000  -42.8680   21.8470 C.3   322  TYR322      0.0534
     84  CG        45.4460  -41.7170   20.8420 C.ar  322  TYR322     -0.0201
     85  CD1       44.4860  -41.7870   19.8390 C.ar  322  TYR322     -0.0009
     86  CD2       46.2630  -40.5590   20.9020 C.ar  322  TYR322     -0.0009
     87  CE1       44.3230  -40.7650   18.9000 C.ar  322  TYR322      0.0417
     88  CE2       46.1160  -39.5230   19.9530 C.ar  322  TYR322      0.0417
     89  CZ        45.1420  -39.6540   18.9490 C.ar  322  TYR322      0.1957
     90  OH        44.9300  -38.6860   18.0170 O.3   322  TYR322     -0.2866
     91  N         45.2860  -50.6990   19.2480 N.3   361  TRP361     -0.1241
     92  CA        45.3660  -49.9010   20.4880 C.3   361  TRP361      0.1605
     93  C         44.2650  -50.2700   21.4810 C.2   361  TRP361      0.2264
     94  O         43.0990  -50.3480   21.1270 O.2   361  TRP361     -0.2867
     95  CB        45.4150  -48.3670   20.2210 C.3   361  TRP361      0.0550
     96  CG        46.5770  -47.9240   19.3250 C.ar  361  TRP361      0.0003
     97  CD1       47.6100  -48.6970   18.8820 C.ar  361  TRP361      0.0946
     98  CD2       46.7920  -46.6170   18.7560 C.ar  361  TRP361      0.0152
     99  NE1       48.4520  -47.9730   18.0940 N.ar  361  TRP361     -0.2442
    100  CE2       47.9820  -46.6870   17.9960 C.ar  361  TRP361      0.0810
    101  CE3       46.1070  -45.3850   18.8380 C.ar  361  TRP361      0.0012
    102  CZ2       48.5040  -45.5760   17.2930 C.ar  361  TRP361      0.0191
    103  CZ3       46.6280  -44.2760   18.1320 C.ar  361  TRP361      0.0001
    104  CH2       47.8130  -44.3950   17.3690 C.ar  361  TRP361      0.0015
    105  N         44.0970  -34.1890   21.5590 N.3   387  GLU387     -0.1245
    106  CA        43.8040  -35.3910   20.7440 C.3   387  GLU387      0.1567
    107  C         43.2970  -36.5020   21.6380 C.2   387  GLU387      0.2260
    108  O         43.8110  -36.6980   22.7570 O.2   387  GLU387     -0.2867
    109  CB        45.0450  -35.9030   20.0130 C.3   387  GLU387      0.0388
    110  CG        45.3760  -35.1070   18.7610 C.3   387  GLU387      0.1160
    111  CD        46.6000  -35.6210   18.0020 C.2   387  GLU387      0.3649
    112  OE1       46.8740  -36.8350   18.0390 O.co2 387  GLU387     -0.2457
    113  OE2       47.2850  -34.7910   17.3570 O.co2 387  GLU387     -0.2457
    114  N         40.4120  -36.4860   17.8390 N.3   425  TRP425     -0.1241
    115  CA        41.1070  -36.8050   16.6080 C.3   425  TRP425      0.1605
    116  C         40.3320  -37.8640   15.8140 C.2   425  TRP425      0.2264
    117  O         40.3290  -39.0230   16.2040 O.2   425  TRP425     -0.2867
    118  CB        42.5450  -37.2930   16.8610 C.3   425  TRP425      0.0550
    119  CG        43.2960  -37.3950   15.5340 C.ar  425  TRP425      0.0003
    120  CD1       43.2860  -38.4560   14.6540 C.ar  425  TRP425      0.0946
    121  CD2       44.0860  -36.3730   14.9120 C.ar  425  TRP425      0.0152
    122  NE1       44.0340  -38.1580   13.5430 N.ar  425  TRP425     -0.2442
    123  CE2       44.5480  -36.8920   13.6780 C.ar  425  TRP425      0.0810
    124  CE3       44.4760  -35.0800   15.2910 C.ar  425  TRP425      0.0012
    125  CZ2       45.3770  -36.1560   12.8140 C.ar  425  TRP425      0.0191
    126  CZ3       45.3160  -34.3540   14.4240 C.ar  425  TRP425      0.0001
    127  CH2       45.7440  -34.9000   13.2050 C.ar  425  TRP425      0.0015
    128  N         47.2810  -41.2650    7.4680 N.3   432  GLU432     -0.1231
    129  CA        47.9070  -41.6210    8.7280 C.3   432  GLU432      0.1699
    130  C         49.3760  -41.9890    8.5020 C.2   432  GLU432      0.2592
    131  O         49.7960  -43.1250    8.6690 O.2   432  GLU432     -0.2718
    132  CB        47.1110  -42.7250    9.4530 C.3   432  GLU432      0.0402
    133  CG        47.6720  -43.1460   10.8080 C.3   432  GLU432      0.1161
    134  CD        47.5990  -42.0410   11.8410 C.2   432  GLU432      0.3649
    135  OE1       48.4390  -42.0540   12.7590 O.co2 432  GLU432     -0.2457
    136  OE2       46.7130  -41.1670   11.7460 O.co2 432  GLU432     -0.2457
    137  N         50.1490  -41.0000    8.0710 N.am  433  TRP433     -0.1976
    138  CA        51.5960  -41.1000    8.0810 C.3   433  TRP433      0.1640
    139  C         52.0840  -42.3110    7.3060 C.2   433  TRP433      0.2290
    140  O         51.6680  -42.5280    6.1530 O.2   433  TRP433     -0.2864
    141  CB        52.1190  -41.0410    9.5370 C.3   433  TRP433      0.0576
    142  CG        51.6450  -39.7890   10.2330 C.ar  433  TRP433      0.0006
    143  CD1       50.7140  -39.7040   11.2410 C.ar  433  TRP433      0.0946
    144  CD2       52.0370  -38.4390    9.9380 C.ar  433  TRP433      0.0152
    145  NE1       50.5120  -38.3870   11.5910 N.ar  433  TRP433     -0.2442
    146  CE2       51.3180  -37.5920   10.8130 C.ar  433  TRP433      0.0810
    147  CE3       52.9370  -37.8620    9.0240 C.ar  433  TRP433      0.0012
    148  CZ2       51.4790  -36.1880   10.8050 C.ar  433  TRP433      0.0191
    149  CZ3       53.1030  -36.4730    9.0250 C.ar  433  TRP433      0.0001
    150  CH2       52.3770  -35.6550    9.9020 C.ar  433  TRP433      0.0015
    151  N         40.3640  -42.3060   11.4810 N.3   441  PHE441     -0.1241
    152  CA        40.1280  -41.7810   12.8240 C.3   441  PHE441      0.1605
    153  C         38.9850  -40.7970   12.8590 C.2   441  PHE441      0.2264
    154  O         38.7180  -40.2100   13.8940 O.2   441  PHE441     -0.2867
    155  CB        41.3750  -41.0800   13.3870 C.3   441  PHE441      0.0534
    156  CG        42.4260  -42.0090   13.9780 C.ar  441  PHE441     -0.0203
    157  CD1       43.3720  -42.6410   13.1520 C.ar  441  PHE441     -0.0042
    158  CD2       42.5250  -42.1640   15.3510 C.ar  441  PHE441     -0.0042
    159  CE1       44.3530  -43.4540   13.6740 C.ar  441  PHE441     -0.0003
    160  CE2       43.5130  -42.9610   15.9090 C.ar  441  PHE441     -0.0003
    161  CZ        44.4330  -43.6260   15.0680 C.ar  441  PHE441     -0.0000
@<TRIPOS>BOND
     1     4     3    2
     2     3     2    1
     3   140   139    2
     4     2     1    1
     5     2     5    1
     6   139   138    1
     7   128   129    1
     8   137   138    1
     9   137   130   am
    10   138   141    1
    11     5     6    1
    12   130   131    2
    13   130   129    1
    14   129   132    1
    15     6     7    1
    16   147   149   ar
    17   147   144   ar
    18   149   150   ar
    19   132   133    1
    20   141   142    1
    21   150   148   ar
    22   144   142   ar
    23   144   146   ar
    24   142   143   ar
    25     9     7   am
    26     7     8    2
    27    22    23    2
    28    22    21    1
    29   148   146   ar
    30   133   134    1
    31   146   145   ar
    32   143   145   ar
    33   151   152    1
    34    13    12    2
    35   136   134   ar
    36   134   135   ar
    37    21    24    1
    38    21    20    1
    39    24    25    1
    40    12    20   am
    41    12    11    1
    42   125   127   ar
    43   125   123   ar
    44   152   153    1
    45   152   155    1
    46   153   154    2
    47    14    11    1
    48    14    15    1
    49    30    32   ar
    50    30    27   ar
    51    10    11    1
    52   157   159   ar
    53   157   156   ar
    54   127   126   ar
    55    17    15   ar
    56    17    19   ar
    57   155   156    1
    58    25    27   ar
    59    25    26   ar
    60    15    16   ar
    61   122   123   ar
    62   122   120   ar
    63   159   161   ar
    64   123   121   ar
    65    32    33   ar
    66    27    29   ar
    67    19    18   ar
    68   156   158   ar
    69    16    18   ar
    70   126   124   ar
    71    26    28   ar
    72   120   119   ar
    73   121   124   ar
    74   121   119   ar
    75   161   160   ar
    76    33    31   ar
    77    29    28   ar
    78    29    31   ar
    79   158   160   ar
    80   119   118    1
    81   116   117    2
    82   116   115    1
    83    41    39   am
    84   115   118    1
    85   115   114    1
    86    38    39    1
    87    38    35    1
    88    56    55    1
    89    54    53    2
    90    39    40    2
    91   102   104   ar
    92   102   100   ar
    93   113   111   ar
    94   104   103   ar
    95    37    36    2
    96    53    52    1
    97    34    35    1
    98   100    99   ar
    99   100    98   ar
   100   111   112   ar
   101   111   110    1
   102    90    89    1
   103    99    97   ar
   104   103   101   ar
   105    35    36    1
   106    55    52    1
   107    55    57    1
   108    36    42   am
   109    45    44    2
   110    98   101   ar
   111    98    96   ar
   112    49    48   ar
   113   110   109    1
   114    52    51    1
   115    97    96   ar
   116    87    89   ar
   117    87    85   ar
   118    89    88   ar
   119    91    92    1
   120    96    95    1
   121    46    47    1
   122    46    43    1
   123    44    43    1
   124    42    43    1
   125    48    47    1
   126    48    50   ar
   127    85    84   ar
   128    88    86   ar
   129   109   106    1
   130    95    92    1
   131    78    76   am
   132    92    93    1
   133   106   105    1
   134   106   107    1
   135    84    86   ar
   136    84    83    1
   137    94    93    2
   138    76    77    2
   139    76    75    1
   140   107   108    2
   141    83    80    1
   142    62    59    1
   143    75    72    1
   144    80    79    1
   145    80    81    1
   146    59    58    1
   147    59    60    1
   148    72    73    1
   149    72    71    1
   150    81    82    2
   151    73    74    2
   152    60    63   am
   153    60    61    2
   154    63    64    1
   155    66    65    2
   156    65    64    1
   157    64    67    1
   158    70    68   am
   159    67    68    1
   160    68    69    2
