@<TRIPOS>MOLECULE
tmp/2cesB00.pdb
 149 149 0 0 0
SMALL
GASTEIGER

@<TRIPOS>ATOM
      1  N        -17.0600  -32.5400  -14.8950 N.3    18  GLN18      -0.1245
      2  CA       -17.7660  -31.2730  -14.8780 C.3    18  GLN18       0.1566
      3  C        -17.3000  -30.2970  -15.9780 C.2    18  GLN18       0.2260
      4  O        -18.0730  -29.3830  -16.3670 O.2    18  GLN18      -0.2867
      5  CB       -17.6070  -30.6040  -13.5280 C.3    18  GLN18       0.0367
      6  CG       -17.7920  -31.5770  -12.3850 C.3    18  GLN18       0.0905
      7  CD       -18.1550  -30.8820  -11.1540 C.2    18  GLN18       0.2608
      8  OE1      -17.4650  -30.9850  -10.1500 O.2    18  GLN18      -0.2717
      9  NE2      -19.2580  -30.1560  -11.1980 N.am   18  GLN18      -0.0878
     10  N        -13.2600  -38.3190   -8.5690 N.3   119  HIS119     -0.1226
     11  CA       -14.2390  -37.2450   -8.3830 C.3   119  HIS119      0.1752
     12  C        -15.5340  -37.6560   -9.1130 C.2   119  HIS119      0.2596
     13  O        -16.0940  -36.8930   -9.9490 O.2   119  HIS119     -0.2718
     14  CB       -13.7130  -35.8860   -8.9000 C.3   119  HIS119      0.0759
     15  CG       -14.3760  -34.6970   -8.2660 C.ar  119  HIS119      0.0818
     16  ND1      -13.6610  -33.7180   -7.6080 N.ar  119  HIS119     -0.2268
     17  CD2      -15.6820  -34.3420   -8.1620 C.ar  119  HIS119      0.1154
     18  CE1      -14.4960  -32.7980   -7.1490 C.ar  119  HIS119      0.1986
     19  NE2      -15.7290  -33.1510   -7.4740 N.ar  119  HIS119     -0.2212
     20  N        -15.9260  -38.9270   -8.8570 N.am  120  TRP120     -0.1976
     21  CA       -17.2990  -39.4090   -9.0130 C.3   120  TRP120      0.1640
     22  C        -17.6320  -40.0580  -10.3550 C.2   120  TRP120      0.2290
     23  O        -18.6960  -40.6420  -10.5040 O.2   120  TRP120     -0.2864
     24  CB       -18.3270  -38.3300   -8.6790 C.3   120  TRP120      0.0576
     25  CG       -18.1810  -37.6010   -7.3760 C.ar  120  TRP120      0.0006
     26  CD1      -17.3080  -37.8680   -6.3230 C.ar  120  TRP120      0.0946
     27  CD2      -19.0050  -36.4920   -6.9400 C.ar  120  TRP120      0.0152
     28  NE1      -17.5200  -36.9590   -5.2930 N.ar  120  TRP120     -0.2442
     29  CE2      -18.5540  -36.1140   -5.6420 C.ar  120  TRP120      0.0810
     30  CE3      -20.0550  -35.7690   -7.5350 C.ar  120  TRP120      0.0012
     31  CZ2      -19.1470  -35.0540   -4.9210 C.ar  120  TRP120      0.0191
     32  CZ3      -20.6420  -34.7040   -6.8180 C.ar  120  TRP120      0.0001
     33  CH2      -20.1870  -34.3650   -5.5250 C.ar  120  TRP120      0.0015
     34  N        -12.7760  -37.6360   -3.5420 N.3   163  ASN163     -0.1225
     35  CA       -13.5760  -36.4450   -3.2370 C.3   163  ASN163      0.1785
     36  C        -14.9100  -36.8220   -2.6350 C.2   163  ASN163      0.2597
     37  O        -15.7380  -37.4150   -3.3030 O.2   163  ASN163     -0.2718
     38  CB       -13.8170  -35.5940   -4.5000 C.3   163  ASN163      0.1169
     39  CG       -14.5560  -34.2860   -4.2070 C.2   163  ASN163      0.2627
     40  OD1      -13.9540  -33.3230   -3.7180 O.2   163  ASN163     -0.2716
     41  ND2      -15.8480  -34.2380   -4.5330 N.am  163  ASN163     -0.0877
     42  N        -15.1060  -36.4720   -1.3680 N.am  164  GLU164     -0.1979
     43  CA       -16.3990  -36.4980   -0.7200 C.3   164  GLU164      0.1602
     44  C        -17.0880  -37.8800   -0.7220 C.2   164  GLU164      0.2287
     45  O        -18.2170  -38.0210   -1.2160 O.2   164  GLU164     -0.2864
     46  CB       -17.3350  -35.3780   -1.2340 C.3   164  GLU164      0.0415
     47  CG       -16.7100  -33.9500   -1.2220 C.3   164  GLU164      0.1163
     48  CD       -17.6980  -32.8460   -1.5630 C.2   164  GLU164      0.3649
     49  OE1      -18.7480  -33.1170   -2.1800 O.co2 164  GLU164     -0.2457
     50  OE2      -17.4440  -31.6900   -1.1820 O.co2 164  GLU164     -0.2457
     51  N        -16.6490  -33.3080    2.4500 N.3   220  ASN220     -0.1240
     52  CA       -17.6210  -32.2370    2.4860 C.3   220  ASN220      0.1653
     53  C        -17.9030  -31.9930    3.9300 C.2   220  ASN220      0.2266
     54  O        -17.8670  -32.9400    4.7320 O.2   220  ASN220     -0.2867
     55  CB       -18.9420  -32.6110    1.7680 C.3   220  ASN220      0.1155
     56  CG       -19.5080  -33.9450    2.2070 C.2   220  ASN220      0.2627
     57  OD1      -18.9580  -35.0020    1.8520 O.2   220  ASN220     -0.2716
     58  ND2      -20.6060  -33.9190    3.0120 N.am  220  ASN220     -0.0877
     59  N        -13.7000  -29.4080    2.3300 N.3   291  ASN291     -0.1240
     60  CA       -14.5420  -28.6360    1.4390 C.3   291  ASN291      0.1653
     61  C        -15.5760  -27.9620    2.3260 C.2   291  ASN291      0.2266
     62  O        -16.1150  -28.6000    3.2300 O.2   291  ASN291     -0.2867
     63  CB       -15.2900  -29.5660    0.4850 C.3   291  ASN291      0.1155
     64  CG       -14.4330  -30.1010   -0.6110 C.2   291  ASN291      0.2627
     65  OD1      -13.2180  -29.8550   -0.6740 O.2   291  ASN291     -0.2716
     66  ND2      -15.0510  -30.8720   -1.4900 N.am  291  ASN291     -0.0877
     67  N        -18.8590  -24.7860    2.2970 N.3   293  TYR293     -0.1241
     68  CA       -19.6710  -23.9100    1.4950 C.3   293  TYR293      0.1605
     69  C        -20.7360  -23.2440    2.3400 C.2   293  TYR293      0.2264
     70  O        -20.9840  -22.0530    2.1800 O.2   293  TYR293     -0.2867
     71  CB       -20.3470  -24.6740    0.3520 C.3   293  TYR293      0.0534
     72  CG       -19.4370  -25.0830   -0.7750 C.ar  293  TYR293     -0.0201
     73  CD1      -19.4970  -24.4420   -2.0170 C.ar  293  TYR293     -0.0009
     74  CD2      -18.5360  -26.1440   -0.6260 C.ar  293  TYR293     -0.0009
     75  CE1      -18.6850  -24.8510   -3.0790 C.ar  293  TYR293      0.0417
     76  CE2      -17.7130  -26.5280   -1.6690 C.ar  293  TYR293      0.0417
     77  CZ       -17.8050  -25.8780   -2.8950 C.ar  293  TYR293      0.1957
     78  OH       -16.9950  -26.2740   -3.9340 O.3   293  TYR293     -0.2866
     79  N        -28.1290  -21.9630   -0.4990 N.3   320  TRP320     -0.1241
     80  CA       -27.3150  -22.3150    0.6580 C.3   320  TRP320      0.1605
     81  C        -26.9360  -21.0530    1.4490 C.2   320  TRP320      0.2264
     82  O        -26.3450  -20.1170    0.8960 O.2   320  TRP320     -0.2867
     83  CB       -26.0130  -23.0330    0.2480 C.3   320  TRP320      0.0550
     84  CG       -26.1070  -24.3180   -0.5850 C.ar  320  TRP320      0.0003
     85  CD1      -27.1840  -25.1570   -0.7190 C.ar  320  TRP320      0.0946
     86  CD2      -25.0440  -24.9050   -1.3590 C.ar  320  TRP320      0.0152
     87  NE1      -26.8630  -26.2040   -1.5650 N.ar  320  TRP320     -0.2442
     88  CE2      -25.5570  -26.0770   -1.9580 C.ar  320  TRP320      0.0810
     89  CE3      -23.7050  -24.5420   -1.6140 C.ar  320  TRP320      0.0012
     90  CZ2      -24.7790  -26.8960   -2.7880 C.ar  320  TRP320      0.0191
     91  CZ3      -22.9310  -25.3580   -2.4350 C.ar  320  TRP320      0.0001
     92  CH2      -23.4750  -26.5220   -3.0200 C.ar  320  TRP320      0.0015
     93  N        -11.9260  -26.9610   -1.4900 N.3   347  GLU347     -0.1245
     94  CA       -12.9370  -26.2480   -2.2580 C.3   347  GLU347      0.1567
     95  C        -13.6550  -25.2490   -1.3740 C.2   347  GLU347      0.2260
     96  O        -14.0460  -25.5780   -0.2700 O.2   347  GLU347     -0.2867
     97  CB       -14.0330  -27.2030   -2.7500 C.3   347  GLU347      0.0388
     98  CG       -13.5560  -28.3380   -3.6290 C.3   347  GLU347      0.1160
     99  CD       -14.6890  -29.2000   -4.1320 C.2   347  GLU347      0.3649
    100  OE1      -15.8610  -28.8160   -4.0000 O.co2 347  GLU347     -0.2457
    101  OE2      -14.3830  -30.2810   -4.6420 O.co2 347  GLU347     -0.2457
    102  N        -13.5300  -23.1840   -5.5170 N.3   394  TRP394     -0.1241
    103  CA       -14.3720  -23.8790   -6.4920 C.3   394  TRP394      0.1605
    104  C        -15.2210  -22.8190   -7.1600 C.2   394  TRP394      0.2264
    105  O        -16.0440  -22.1960   -6.4790 O.2   394  TRP394     -0.2867
    106  CB       -15.3030  -24.9480   -5.8580 C.3   394  TRP394      0.0550
    107  CG       -16.0240  -25.7100   -6.9340 C.ar  394  TRP394      0.0003
    108  CD1      -17.2110  -25.3830   -7.5090 C.ar  394  TRP394      0.0946
    109  CD2      -15.5550  -26.8730   -7.6180 C.ar  394  TRP394      0.0152
    110  NE1      -17.5300  -26.2870   -8.5040 N.ar  394  TRP394     -0.2442
    111  CE2      -16.5240  -27.2130   -8.5840 C.ar  394  TRP394      0.0810
    112  CE3      -14.4340  -27.6840   -7.4770 C.ar  394  TRP394      0.0012
    113  CZ2      -16.3930  -28.3120   -9.4160 C.ar  394  TRP394      0.0191
    114  CZ3      -14.3060  -28.7780   -8.3000 C.ar  394  TRP394      0.0001
    115  CH2      -15.2800  -29.0840   -9.2540 C.ar  394  TRP394      0.0015
    116  N        -22.9630  -28.5340  -13.1820 N.3   401  GLU401     -0.1231
    117  CA       -23.1650  -28.6860  -11.7410 C.3   401  GLU401      0.1699
    118  C        -24.0130  -29.9260  -11.3920 C.2   401  GLU401      0.2592
    119  O        -25.0620  -29.8380  -10.7510 O.2   401  GLU401     -0.2718
    120  CB       -23.6950  -27.3980  -11.0910 C.3   401  GLU401      0.0402
    121  CG       -23.9970  -27.5190   -9.5620 C.3   401  GLU401      0.1161
    122  CD       -22.8120  -27.9640   -8.6800 C.2   401  GLU401      0.3649
    123  OE1      -21.6260  -27.8100   -9.0450 O.co2 401  GLU401     -0.2457
    124  OE2      -23.0740  -28.4740   -7.5650 O.co2 401  GLU401     -0.2457
    125  N        -23.5260  -31.0860  -11.8240 N.am  402  TRP402     -0.1976
    126  CA       -24.1510  -32.3780  -11.4880 C.3   402  TRP402      0.1640
    127  C        -25.6600  -32.3550  -11.7970 C.2   402  TRP402      0.2290
    128  O        -26.0330  -32.0210  -12.9380 O.2   402  TRP402     -0.2864
    129  CB       -23.8030  -32.7700  -10.0380 C.3   402  TRP402      0.0576
    130  CG       -22.3110  -32.7690   -9.7800 C.ar  402  TRP402      0.0006
    131  CD1      -21.6060  -31.9030   -8.9430 C.ar  402  TRP402      0.0946
    132  CD2      -21.3240  -33.6160  -10.3920 C.ar  402  TRP402      0.0152
    133  NE1      -20.2590  -32.1880   -9.0170 N.ar  402  TRP402     -0.2442
    134  CE2      -20.0660  -33.2480   -9.8690 C.ar  402  TRP402      0.0810
    135  CE3      -21.3830  -34.6760  -11.3250 C.ar  402  TRP402      0.0012
    136  CZ2      -18.8790  -33.9010  -10.2460 C.ar  402  TRP402      0.0191
    137  CZ3      -20.2150  -35.3290  -11.6660 C.ar  402  TRP402      0.0001
    138  CH2      -18.9760  -34.9340  -11.1380 C.ar  402  TRP402      0.0015
    139  N        -20.3550  -21.4870  -10.7860 N.3   410  PHE410     -0.1241
    140  CA       -19.5210  -21.4260   -9.5880 C.3   410  PHE410      0.1605
    141  C        -18.1970  -20.7550   -9.8730 C.2   410  PHE410      0.2264
    142  O        -17.4560  -20.4470   -8.9420 O.2   410  PHE410     -0.2867
    143  CB       -19.2220  -22.8480   -9.0310 C.3   410  PHE410      0.0534
    144  CG       -20.2270  -23.3440   -8.0160 C.ar  410  PHE410     -0.0203
    145  CD1      -21.4130  -23.9740   -8.4240 C.ar  410  PHE410     -0.0042
    146  CD2      -19.9780  -23.2180   -6.6650 C.ar  410  PHE410     -0.0042
    147  CE1      -22.3270  -24.4390   -7.4970 C.ar  410  PHE410     -0.0003
    148  CE2      -20.8870  -23.6680   -5.7320 C.ar  410  PHE410     -0.0003
    149  CZ       -22.0710  -24.2780   -6.1480 C.ar  410  PHE410     -0.0000
@<TRIPOS>BOND
     1     4     3    2
     2     3     2    1
     3     1     2    1
     4     2     5    1
     5     5     6    1
     6   116   117    1
     7   128   127    2
     8     6     7    1
     9   125   126    1
    10   125   118   am
    11   127   126    1
    12   117   118    1
    13   117   120    1
    14   137   135   ar
    15   137   138   ar
    16   126   129    1
    17   118   119    2
    18   135   132   ar
    19     9     7   am
    20     7     8    2
    21   138   136   ar
    22   120   121    1
    23   139   140    1
    24    23    22    2
    25   132   134   ar
    26   132   130   ar
    27    22    21    1
    28   136   134   ar
    29   129   130    1
    30    13    12    2
    31   141   140    1
    32   141   142    2
    33   134   133   ar
    34   130   131   ar
    35   140   143    1
    36   121   122    1
    37   113   115   ar
    38   113   111   ar
    39   115   114   ar
    40    12    20   am
    41    12    11    1
    42   123   122   ar
    43   143   144    1
    44   133   131   ar
    45    21    20    1
    46    21    24    1
    47    14    11    1
    48    14    15    1
    49   122   124   ar
    50    24    25    1
    51   111   110   ar
    52   111   109   ar
    53    10    11    1
    54   110   108   ar
    55   145   144   ar
    56   145   147   ar
    57   114   112   ar
    58    15    17   ar
    59    15    16   ar
    60    17    19   ar
    61   144   146   ar
    62   109   112   ar
    63   109   107   ar
    64    16    18   ar
    65    30    27   ar
    66    30    32   ar
    67   108   107   ar
    68   147   149   ar
    69    19    18   ar
    70    25    27   ar
    71    25    26   ar
    72   104   103    1
    73   104   105    2
    74    27    29   ar
    75   107   106    1
    76    32    33   ar
    77   146   148   ar
    78   103   106    1
    79   103   102    1
    80    26    28   ar
    81   149   148   ar
    82    29    28   ar
    83    29    31   ar
    84    33    31   ar
    85   101    99   ar
    86    41    39   am
    87    38    39    1
    88    38    35    1
    89    39    40    2
    90    99   100   ar
    91    99    98    1
    92    78    77    1
    93    98    97    1
    94    34    35    1
    95    37    36    2
    96    35    36    1
    97    75    77   ar
    98    75    73   ar
    99    92    90   ar
   100    92    91   ar
   101    77    76   ar
   102    90    88   ar
   103    97    94    1
   104    36    42   am
   105    91    89   ar
   106    94    93    1
   107    94    95    1
   108    49    48   ar
   109    73    72   ar
   110    88    87   ar
   111    88    86   ar
   112    76    74   ar
   113    89    86   ar
   114    87    85   ar
   115    48    47    1
   116    48    50   ar
   117    66    64   am
   118    95    96    2
   119    42    43    1
   120    86    84   ar
   121    46    47    1
   122    46    43    1
   123    45    44    2
   124    72    74   ar
   125    72    71    1
   126    44    43    1
   127    85    84   ar
   128    65    64    2
   129    64    63    1
   130    84    83    1
   131    79    80    1
   132    83    80    1
   133    71    68    1
   134    63    60    1
   135    80    81    1
   136    82    81    2
   137    60    61    1
   138    60    59    1
   139    68    67    1
   140    68    69    1
   141    55    56    1
   142    55    52    1
   143    57    56    2
   144    70    69    2
   145    56    58   am
   146    61    62    2
   147    51    52    1
   148    52    53    1
   149    53    54    2
