@<TRIPOS>MOLECULE
tmp/2cetA00.pdb
 195 195 0 0 0
SMALL
GASTEIGER

@<TRIPOS>ATOM
      1  N          3.1220   13.9790    0.5750 N.3    18  GLN18      -0.1245
      2  CA         1.8330   13.3630    0.3290 C.3    18  GLN18       0.1566
      3  C          1.0150   14.0650   -0.7440 C.2    18  GLN18       0.2260
      4  O          0.1970   13.4330   -1.3700 O.2    18  GLN18      -0.2867
      5  CB         1.0240   13.2580    1.6060 C.3    18  GLN18       0.0367
      6  CG         1.7370   12.4540    2.6530 C.3    18  GLN18       0.0905
      7  CD         0.8920   12.2930    3.8770 C.2    18  GLN18       0.2608
      8  OE1        1.0350   13.0360    4.8300 O.2    18  GLN18      -0.2717
      9  NE2       -0.0060   11.3160    3.8560 N.am   18  GLN18      -0.0878
     10  N          7.9050   16.8610    8.2060 N.3   119  HIS119     -0.1226
     11  CA         6.8510   15.8510    8.1710 C.3   119  HIS119      0.1752
     12  C          7.3810   14.6860    7.3270 C.2   119  HIS119      0.2596
     13  O          6.7260   14.2780    6.3560 O.2   119  HIS119     -0.2718
     14  CB         5.5550   16.4610    7.5710 C.3   119  HIS119      0.0759
     15  CG         4.2930   15.7270    7.9030 C.ar  119  HIS119      0.0818
     16  ND1        3.1870   16.3660    8.4290 N.ar  119  HIS119     -0.2268
     17  CD2        3.9180   14.4420    7.6820 C.ar  119  HIS119      0.1154
     18  CE1        2.2020   15.4930    8.5690 C.ar  119  HIS119      0.1986
     19  NE2        2.6200   14.3130    8.1290 N.ar  119  HIS119     -0.2212
     20  N          8.5750   14.1780    7.7170 N.am  120  TRP120     -0.1976
     21  CA         9.0610   12.8460    7.3420 C.3   120  TRP120      0.1640
     22  C          9.9220   12.6900    6.0670 C.2   120  TRP120      0.2290
     23  O         10.5450   11.6290    5.8680 O.2   120  TRP120     -0.2864
     24  CB         7.9290   11.8140    7.2910 C.3   120  TRP120      0.0576
     25  CG         7.0250   11.7730    8.4730 C.ar  120  TRP120      0.0006
     26  CD1        7.1310   12.4770    9.6420 C.ar  120  TRP120      0.0946
     27  CD2        5.8690   10.9460    8.6030 C.ar  120  TRP120      0.0152
     28  NE1        6.1050   12.1310   10.4920 N.ar  120  TRP120     -0.2442
     29  CE2        5.3260   11.1810    9.8850 C.ar  120  TRP120      0.0810
     30  CE3        5.2370   10.0090    7.7560 C.ar  120  TRP120      0.0012
     31  CZ2        4.1770   10.5300   10.3340 C.ar  120  TRP120      0.0191
     32  CZ3        4.1040    9.3580    8.2190 C.ar  120  TRP120      0.0001
     33  CH2        3.5680    9.6390    9.4840 C.ar  120  TRP120      0.0015
     34  N          6.5340   16.6350   13.0570 N.3   163  ASN163     -0.1225
     35  CA         5.3700   15.7740   13.0620 C.3   163  ASN163      0.1785
     36  C          5.6570   14.3640   13.5140 C.2   163  ASN163      0.2597
     37  O          6.3130   13.5950   12.8030 O.2   163  ASN163     -0.2718
     38  CB         4.7650   15.6360   11.6570 C.3   163  ASN163      0.1169
     39  CG         3.4040   14.9460   11.6830 C.2   163  ASN163      0.2627
     40  OD1        2.4400   15.5050   12.2010 O.2   163  ASN163     -0.2716
     41  ND2        3.3160   13.7400   11.1080 N.am  163  ASN163     -0.0877
     42  N          5.0760   14.0000   14.6540 N.am  164  GLU164     -0.1979
     43  CA         5.0010   12.6290   15.1330 C.3   164  GLU164      0.1602
     44  C          6.3630   11.9720   15.2230 C.2   164  GLU164      0.2287
     45  O          6.6090   10.9570   14.5460 O.2   164  GLU164     -0.2864
     46  CB         4.0410   11.8010   14.2800 C.3   164  GLU164      0.0415
     47  CG         2.6510   12.4150   14.2600 C.3   164  GLU164      0.1163
     48  CD         1.6050   11.5440   13.6140 C.2   164  GLU164      0.3649
     49  OE1        1.9320   10.6740   12.7680 O.co2 164  GLU164     -0.2457
     50  OE2        0.4270   11.7440   13.9690 O.co2 164  GLU164     -0.2457
     51  N          7.4870   10.0050   17.3040 N.3   166  TRP166     -0.1227
     52  CA         7.3980    8.5750   17.6080 C.3   166  TRP166      0.1737
     53  C          7.3300    7.7700   16.3180 C.2   166  TRP166      0.2595
     54  O          7.9840    6.7410   16.1810 O.2   166  TRP166     -0.2718
     55  CB         6.1550    8.2710   18.4490 C.3   166  TRP166      0.0564
     56  CG         6.0340    6.8370   18.8110 C.ar  166  TRP166      0.0003
     57  CD1        6.5270    6.2430   19.9320 C.ar  166  TRP166      0.0946
     58  CD2        5.3680    5.8060   18.0620 C.ar  166  TRP166      0.0152
     59  NE1        6.2360    4.9080   19.9200 N.ar  166  TRP166     -0.2442
     60  CE2        5.5130    4.6100   18.7960 C.ar  166  TRP166      0.0810
     61  CE3        4.6670    5.7750   16.8450 C.ar  166  TRP166      0.0012
     62  CZ2        5.0090    3.3870   18.3490 C.ar  166  TRP166      0.0191
     63  CZ3        4.1300    4.5260   16.3990 C.ar  166  TRP166      0.0001
     64  CH2        4.3050    3.3660   17.1660 C.ar  166  TRP166      0.0015
     65  N          6.5020    8.2190   15.3800 N.am  167  VAL167     -0.1980
     66  CA         6.3530    7.5140   14.0970 C.3   167  VAL167      0.1595
     67  C          7.7260    7.5290   13.3890 C.2   167  VAL167      0.2287
     68  O          8.2250    6.4940   13.0190 O.2   167  VAL167     -0.2864
     69  CB         5.2310    8.1420   13.2030 C.3   167  VAL167      0.0276
     70  CG1        5.1340    7.3880   11.8730 C.3   167  VAL167      0.0022
     71  CG2        3.8950    8.0630   13.9070 C.3   167  VAL167      0.0022
     72  N          8.3360    3.7830   13.6520 N.3   171  VAL171     -0.1245
     73  CA         7.8230    3.1800   12.4080 C.3   171  VAL171      0.1561
     74  C          8.9180    3.1750   11.3230 C.2   171  VAL171      0.2260
     75  O          8.9890    2.2550   10.4950 O.2   171  VAL171     -0.2867
     76  CB         6.4940    3.8230   11.9240 C.3   171  VAL171      0.0252
     77  CG1        5.9060    3.0620   10.6930 C.3   171  VAL171      0.0019
     78  CG2        5.4550    3.7890   13.0620 C.3   171  VAL171      0.0019
     79  N          8.0770    2.5380    7.4480 N.3   178  HIS178     -0.1241
     80  CA         8.2610    3.8480    6.8190 C.3   178  HIS178      0.1621
     81  C          9.7320    4.0660    6.5260 C.2   178  HIS178      0.2264
     82  O         10.5820    3.3940    7.0960 O.2   178  HIS178     -0.2867
     83  CB         7.7880    4.9340    7.7730 C.3   178  HIS178      0.0745
     84  CG         6.2990    5.0650    7.8210 C.ar  178  HIS178      0.0817
     85  ND1        5.6640    6.0920    8.4800 N.ar  178  HIS178     -0.2268
     86  CD2        5.3260    4.3370    7.2300 C.ar  178  HIS178      0.1154
     87  CE1        4.3570    5.9680    8.3250 C.ar  178  HIS178      0.1986
     88  NE2        4.1220    4.9210    7.5590 N.ar  178  HIS178     -0.2212
     89  N          1.5820   11.9500   17.7610 N.3   220  ASN220     -0.1225
     90  CA         0.4760   11.0340   17.5210 C.3   220  ASN220      0.1785
     91  C         -0.0290   10.5170   18.8720 C.2   220  ASN220      0.2597
     92  O          0.7440   10.4210   19.8610 O.2   220  ASN220     -0.2718
     93  CB         0.8890    9.8310   16.6590 C.3   220  ASN220      0.1169
     94  CG         2.1590    9.1550   17.1490 C.2   220  ASN220      0.2627
     95  OD1        3.2480    9.7150   17.0380 O.2   220  ASN220     -0.2716
     96  ND2        2.0270    7.9270   17.6710 N.am  220  ASN220     -0.0877
     97  N         -1.3170   10.1900   18.9130 N.am  221  ASN221     -0.1974
     98  CA        -1.9010    9.6580   20.1410 C.3   221  ASN221      0.1688
     99  C         -2.9900    8.6870   19.8490 C.2   221  ASN221      0.2292
    100  O         -3.7980    8.9180   18.9470 O.2   221  ASN221     -0.2864
    101  CB        -2.4710   10.7840   21.0090 C.3   221  ASN221      0.1181
    102  CG        -1.5120   11.8840   21.2160 C.2   221  ASN221      0.2629
    103  OD1       -0.7210   11.8670   22.1520 O.2   221  ASN221     -0.2716
    104  ND2       -1.5710   12.8810   20.3440 N.am  221  ASN221     -0.0877
    105  N         -6.6440    9.7850   16.1090 N.3   288  TYR288     -0.1241
    106  CA        -7.4290    9.0670   15.0900 C.3   288  TYR288      0.1605
    107  C         -8.2870    7.9140   15.6190 C.2   288  TYR288      0.2264
    108  O         -9.4120    7.7150   15.1360 O.2   288  TYR288     -0.2867
    109  CB        -6.5310    8.5220   13.9500 C.3   288  TYR288      0.0534
    110  CG        -5.9110    9.5850   13.0800 C.ar  288  TYR288     -0.0201
    111  CD1       -4.7640   10.2550   13.4810 C.ar  288  TYR288     -0.0009
    112  CD2       -6.4750    9.9130   11.8590 C.ar  288  TYR288     -0.0009
    113  CE1       -4.1930   11.2250   12.6800 C.ar  288  TYR288      0.0417
    114  CE2       -5.9150   10.8910   11.0590 C.ar  288  TYR288      0.0417
    115  CZ        -4.7740   11.5390   11.4720 C.ar  288  TYR288      0.1957
    116  OH        -4.2200   12.4990   10.6580 O.3   288  TYR288     -0.2866
    117  N         -8.9610    2.0810    7.2870 N.3   312  MET312     -0.1245
    118  CA        -7.6460    1.7300    7.7800 C.3   312  MET312      0.1570
    119  C         -7.7700    0.5250    8.6980 C.2   312  MET312      0.2261
    120  O         -6.7760   -0.1260    9.0130 O.2   312  MET312     -0.2867
    121  CB        -7.0230    2.8820    8.5790 C.3   312  MET312      0.0387
    122  CG        -6.7440    4.1920    7.8010 C.3   312  MET312      0.0595
    123  SD        -5.6280    4.0080    6.3960 S.3   312  MET312     -0.1393
    124  CE        -4.0390    3.7260    7.1900 C.3   312  MET312      0.0692
    125  N         -9.2010    1.1350   11.6390 N.3   314  TRP314     -0.1241
    126  CA        -8.9620    1.8210   12.8980 C.3   314  TRP314      0.1605
    127  C        -10.2990    1.9760   13.6310 C.2   314  TRP314      0.2264
    128  O        -11.2400    2.5150   13.0560 O.2   314  TRP314     -0.2867
    129  CB        -8.3390    3.2100   12.6490 C.3   314  TRP314      0.0550
    130  CG        -6.9190    3.1770   12.0940 C.ar  314  TRP314      0.0003
    131  CD1       -6.1000    2.0840   11.9930 C.ar  314  TRP314      0.0946
    132  CD2       -6.1590    4.2910   11.6260 C.ar  314  TRP314      0.0152
    133  NE1       -4.8920    2.4460   11.4550 N.ar  314  TRP314     -0.2442
    134  CE2       -4.8920    3.7970   11.2340 C.ar  314  TRP314      0.0810
    135  CE3       -6.4330    5.6650   11.4700 C.ar  314  TRP314      0.0012
    136  CZ2       -3.8830    4.6310   10.7020 C.ar  314  TRP314      0.0191
    137  CZ3       -5.4270    6.5030   10.9460 C.ar  314  TRP314      0.0001
    138  CH2       -4.1760    5.9700   10.5510 C.ar  314  TRP314      0.0015
    139  N         -4.2750   17.2440   13.6900 N.3   341  GLU341     -0.1245
    140  CA        -4.7940   16.2520   12.7390 C.3   341  GLU341      0.1567
    141  C         -5.9100   15.4480   13.3870 C.2   341  GLU341      0.2260
    142  O         -5.7660   14.9800   14.5130 O.2   341  GLU341     -0.2867
    143  CB        -3.6940   15.2530   12.3130 C.3   341  GLU341      0.0388
    144  CG        -2.5890   15.8310   11.4460 C.3   341  GLU341      0.1160
    145  CD        -1.6110   14.7840   10.9410 C.2   341  GLU341      0.3649
    146  OE1       -1.9840   13.5860   10.8690 O.co2 341  GLU341     -0.2457
    147  OE2       -0.4820   15.1840   10.6160 O.co2 341  GLU341     -0.2457
    148  N         -7.3590   16.3560    9.1160 N.3   388  TRP388     -0.1241
    149  CA        -6.5560   15.5980    8.1440 C.3   388  TRP388      0.1605
    150  C         -7.5190   14.8580    7.2120 C.2   388  TRP388      0.2264
    151  O         -8.2040   13.9720    7.6880 O.2   388  TRP388     -0.2867
    152  CB        -5.6830   14.5410    8.8510 C.3   388  TRP388      0.0550
    153  CG        -4.8330   13.9130    7.8490 C.ar  388  TRP388      0.0003
    154  CD1       -5.1060   12.7940    7.1020 C.ar  388  TRP388      0.0946
    155  CD2       -3.5910   14.4290    7.3700 C.ar  388  TRP388      0.0152
    156  NE1       -4.0880   12.5770    6.1980 N.ar  388  TRP388     -0.2442
    157  CE2       -3.1470   13.5680    6.3400 C.ar  388  TRP388      0.0810
    158  CE3       -2.8110   15.5420    7.7070 C.ar  388  TRP388      0.0012
    159  CZ2       -1.9500   13.7780    5.6600 C.ar  388  TRP388      0.0191
    160  CZ3       -1.6100   15.7300    7.0370 C.ar  388  TRP388      0.0001
    161  CH2       -1.1980   14.8620    6.0180 C.ar  388  TRP388      0.0015
    162  N         -0.9160    8.1000    0.9190 N.3   395  GLU395     -0.1231
    163  CA        -0.9790    7.6640    2.3030 C.3   395  GLU395      0.1699
    164  C          0.1930    6.7450    2.6880 C.2   395  GLU395      0.2592
    165  O         -0.0060    5.5830    3.0840 O.2   395  GLU395     -0.2718
    166  CB        -2.3610    7.0540    2.6060 C.3   395  GLU395      0.0402
    167  CG        -2.5940    6.6010    4.0750 C.3   395  GLU395      0.1161
    168  CD        -2.1820    7.6230    5.1400 C.2   395  GLU395      0.3649
    169  OE1       -2.4170    8.8550    4.9600 O.co2 395  GLU395     -0.2457
    170  OE2       -1.6720    7.1800    6.1950 O.co2 395  GLU395     -0.2457
    171  N          1.4140    7.2760    2.5550 N.am  396  TRP396     -0.1976
    172  CA         2.6250    6.5760    2.9520 C.3   396  TRP396      0.1640
    173  C          2.6140    5.1410    2.4100 C.2   396  TRP396      0.2290
    174  O          2.3860    4.9440    1.2140 O.2   396  TRP396     -0.2864
    175  CB         2.8240    6.6930    4.4880 C.3   396  TRP396      0.0576
    176  CG         2.7720    8.1430    4.9320 C.ar  396  TRP396      0.0006
    177  CD1        1.8230    8.7380    5.7330 C.ar  396  TRP396      0.0946
    178  CD2        3.6850    9.1960    4.5400 C.ar  396  TRP396      0.0152
    179  NE1        2.1180   10.0900    5.8920 N.ar  396  TRP396     -0.2442
    180  CE2        3.2370   10.3950    5.1530 C.ar  396  TRP396      0.0810
    181  CE3        4.8330    9.2410    3.7040 C.ar  396  TRP396      0.0012
    182  CZ2        3.9070   11.6310    4.9850 C.ar  396  TRP396      0.0191
    183  CZ3        5.5120   10.4610    3.5580 C.ar  396  TRP396      0.0001
    184  CH2        5.0400   11.6430    4.2010 C.ar  396  TRP396      0.0015
    185  N         -8.2880   10.2400    2.7700 N.3   404  PHE404     -0.1241
    186  CA        -8.5360   10.9220    4.0540 C.3   404  PHE404      0.1605
    187  C         -9.1160   12.3220    3.8200 C.2   404  PHE404      0.2264
    188  O         -9.3950   13.0160    4.7820 O.2   404  PHE404     -0.2867
    189  CB        -7.2240   11.1120    4.8690 C.3   404  PHE404      0.0534
    190  CG        -6.8920    9.9830    5.7830 C.ar  404  PHE404     -0.0203
    191  CD1       -6.1300    8.9030    5.3390 C.ar  404  PHE404     -0.0042
    192  CD2       -7.3670    9.9770    7.0980 C.ar  404  PHE404     -0.0042
    193  CE1       -5.8450    7.8420    6.1780 C.ar  404  PHE404     -0.0003
    194  CE2       -7.0760    8.9290    7.9530 C.ar  404  PHE404     -0.0003
    195  CZ        -6.3030    7.8580    7.5110 C.ar  404  PHE404     -0.0000
@<TRIPOS>BOND
     1     4     3    2
     2     3     2    1
     3     2     1    1
     4     2     5    1
     5   162   163    1
     6   174   173    2
     7     5     6    1
     8   163   166    1
     9   163   164    1
    10   173   172    1
    11   171   164   am
    12   171   172    1
    13   166   167    1
    14     6     7    1
    15   164   165    2
    16   185   186    1
    17   172   175    1
    18   183   181   ar
    19   183   184   ar
    20   181   178   ar
    21   187   186    1
    22   187   188    2
    23     9     7   am
    24     7     8    2
    25   186   189    1
    26   167   168    1
    27   184   182   ar
    28   175   176    1
    29   178   176   ar
    30   178   180   ar
    31   189   190    1
    32   176   177   ar
    33   169   168   ar
    34   182   180   ar
    35   168   170   ar
    36   180   179   ar
    37   191   190   ar
    38   191   193   ar
    39   159   161   ar
    40   159   157   ar
    41   177   179   ar
    42   190   192   ar
    43    23    22    2
    44   161   160   ar
    45    22    21    1
    46   193   195   ar
    47   156   157   ar
    48   156   154   ar
    49   157   155   ar
    50    13    12    2
    51   123   124    1
    52   123   122    1
    53    81    80    1
    54    81    82    2
    55    80    79    1
    56    80    83    1
    57   160   158   ar
    58   192   194   ar
    59   154   153   ar
    60   150   151    2
    61   150   149    1
    62    86    88   ar
    63    86    84   ar
    64   117   118    1
    65    24    21    1
    66    24    25    1
    67    12    20   am
    68    12    11    1
    69    21    20    1
    70   155   158   ar
    71   155   153   ar
    72   195   194   ar
    73    88    87   ar
    74    14    15    1
    75    14    11    1
    76    17    15   ar
    77    17    19   ar
    78    30    32   ar
    79    30    27   ar
    80    83    84    1
    81   118   121    1
    82   118   119    1
    83   122   121    1
    84    84    85   ar
    85   153   152    1
    86    15    16   ar
    87    19    18   ar
    88   149   152    1
    89   149   148    1
    90    11    10    1
    91    32    33   ar
    92    87    85   ar
    93    16    18   ar
    94    25    27   ar
    95    25    26   ar
    96    27    29   ar
    97   119   120    2
    98    33    31   ar
    99    26    28   ar
   100    29    31   ar
   101    29    28   ar
   102    75    74    2
   103   138   136   ar
   104   138   137   ar
   105   147   145   ar
   106   116   115    1
   107    77    76    1
   108   136   134   ar
   109   146   145   ar
   110   145   144    1
   111   137   135   ar
   112   114   115   ar
   113   114   112   ar
   114    41    39   am
   115   134   133   ar
   116   134   132   ar
   117    74    73    1
   118   144   143    1
   119   133   131   ar
   120   135   132   ar
   121   115   113   ar
   122   132   130   ar
   123   125   126    1
   124    38    39    1
   125    38    35    1
   126    39    40    2
   127   112   110   ar
   128    70    69    1
   129    76    73    1
   130    76    78    1
   131   131   130   ar
   132   130   129    1
   133   143   140    1
   134    73    72    1
   135   129   126    1
   136   113   111   ar
   137   140   141    1
   138   140   139    1
   139    49    48   ar
   140    37    36    2
   141   126   127    1
   142    68    67    2
   143   128   127    2
   144    34    35    1
   145    35    36    1
   146   110   111   ar
   147   110   109    1
   148    69    71    1
   149    69    66    1
   150   141   142    2
   151    67    66    1
   152    36    42   am
   153    48    50   ar
   154    48    47    1
   155   109   106    1
   156    66    65    1
   157    47    46    1
   158    46    43    1
   159    45    44    2
   160    42    43    1
   161   106   107    1
   162   106   105    1
   163    43    44    1
   164   108   107    2
   165    65    53   am
   166    54    53    2
   167    53    52    1
   168    63    61   ar
   169    63    64   ar
   170    93    94    1
   171    93    90    1
   172    61    58   ar
   173    95    94    2
   174    94    96   am
   175    64    62   ar
   176    51    52    1
   177    90    89    1
   178    90    91    1
   179    52    55    1
   180    58    60   ar
   181    58    56   ar
   182    62    60   ar
   183    55    56    1
   184    60    59   ar
   185    56    57   ar
   186    91    97   am
   187    91    92    2
   188    97    98    1
   189   100    99    2
   190    99    98    1
   191    59    57   ar
   192    98   101    1
   193   104   102   am
   194   101   102    1
   195   102   103    2
