@<TRIPOS>MOLECULE
tmp/2cf9A01.pdb
 219 218 0 0 0
SMALL
GASTEIGER

@<TRIPOS>ATOM
      1  N         14.4950   -7.1120    9.2230 N.3    27  LEU27      -0.1231
      2  CA        15.6510   -7.4950   10.0460 C.3    27  LEU27       0.1693
      3  C         15.4020   -7.1910   11.5080 C.2    27  LEU27       0.2592
      4  O         15.6890   -8.0160   12.3760 O.2    27  LEU27      -0.2718
      5  CB        16.9230   -6.8030    9.5760 C.3    27  LEU27       0.0284
      6  CG        17.6240   -7.3070    8.3130 C.3    27  LEU27       0.0019
      7  CD1       18.8990   -6.4980    8.0880 C.3    27  LEU27       0.0001
      8  CD2       17.9650   -8.7940    8.3680 C.3    27  LEU27       0.0001
      9  N         14.8390   -6.0190   11.7830 N.am   28  CYS28      -0.1970
     10  CA        14.7870   -5.5090   13.1480 C.3    28  CYS28       0.1712
     11  C         13.9690   -4.2260   13.1750 C.2    28  CYS28       0.2296
     12  O         13.7140   -3.6360   12.1330 O.2    28  CYS28      -0.2864
     13  CB        16.2180   -5.1990   13.6210 C.3    28  CYS28       0.0983
     14  SG        17.0130   -6.5080   14.6070 S.3    28  CYS28      -0.0798
     15  N         22.7730   -6.2650   18.5010 N.3    43  HIS43      -0.1241
     16  CA        22.5850   -7.6470   18.0280 C.3    43  HIS43       0.1621
     17  C         21.8600   -7.6730   16.6600 C.2    43  HIS43       0.2264
     18  O         21.8720   -8.6990   15.9800 O.2    43  HIS43      -0.2867
     19  CB        21.8460   -8.5270   19.0580 C.3    43  HIS43       0.0745
     20  CG        20.3680   -8.3080   19.0920 C.ar   43  HIS43       0.0817
     21  ND1       19.7490   -7.5450   20.0620 N.ar   43  HIS43      -0.2268
     22  CD2       19.3850   -8.7180   18.2480 C.ar   43  HIS43       0.1154
     23  CE1       18.4500   -7.4980   19.8150 C.ar   43  HIS43       0.1986
     24  NE2       18.2030   -8.1970   18.7180 N.ar   43  HIS43      -0.2212
     25  N         26.2810  -10.2510   15.4770 N.3    47  TYR47      -0.1241
     26  CA        26.1840  -11.3640   16.4050 C.3    47  TYR47       0.1605
     27  C         26.9590  -12.5390   15.8280 C.2    47  TYR47       0.2264
     28  O         26.3830  -13.3860   15.1620 O.2    47  TYR47      -0.2867
     29  CB        24.7270  -11.7550   16.6760 C.3    47  TYR47       0.0534
     30  CG        24.5920  -12.6420   17.8820 C.ar   47  TYR47      -0.0201
     31  CD1       24.8850  -12.1560   19.1660 C.ar   47  TYR47      -0.0009
     32  CD2       24.1630  -13.9580   17.7530 C.ar   47  TYR47      -0.0009
     33  CE1       24.7770  -12.9810   20.2940 C.ar   47  TYR47       0.0417
     34  CE2       24.0610  -14.7860   18.8630 C.ar   47  TYR47       0.0417
     35  CZ        24.3590  -14.2850   20.1350 C.ar   47  TYR47       0.1957
     36  OH        24.2620  -15.1060   21.2450 O.3    47  TYR47      -0.2866
     37  N         26.0250  -16.4860   15.3970 N.3    50  TRP50      -0.1241
     38  CA        25.1270  -16.8390   14.2860 C.3    50  TRP50       0.1605
     39  C         25.6200  -16.3440   12.9270 C.2    50  TRP50       0.2264
     40  O         24.8350  -16.2510   11.9740 O.2    50  TRP50      -0.2867
     41  CB        23.7290  -16.2590   14.5210 C.3    50  TRP50       0.0550
     42  CG        23.0140  -16.7830   15.7280 C.ar   50  TRP50       0.0003
     43  CD1       23.4510  -17.7450   16.5960 C.ar   50  TRP50       0.0946
     44  CD2       21.7030  -16.4030   16.1760 C.ar   50  TRP50       0.0152
     45  NE1       22.5020  -17.9610   17.5760 N.ar   50  TRP50      -0.2442
     46  CE2       21.4210  -17.1550   17.3330 C.ar   50  TRP50       0.0810
     47  CE3       20.7400  -15.4910   15.7080 C.ar   50  TRP50       0.0012
     48  CZ2       20.2130  -17.0250   18.0410 C.ar   50  TRP50       0.0191
     49  CZ3       19.5390  -15.3650   16.4070 C.ar   50  TRP50       0.0001
     50  CH2       19.2920  -16.1290   17.5650 C.ar   50  TRP50       0.0015
     51  N         26.3160  -13.3500   11.9820 N.3    52  LYS52      -0.1245
     52  CA        25.6760  -12.1080   11.5730 C.3    52  LYS52       0.1561
     53  C         26.6540  -10.9500   11.6700 C.2    52  LYS52       0.2260
     54  O         27.1690  -10.6480   12.7520 O.2    52  LYS52      -0.2867
     55  CB        24.4480  -11.8280   12.4320 C.3    52  LYS52       0.0271
     56  CG        23.7810  -10.5230   12.0510 C.3    52  LYS52       0.0035
     57  CD        22.7630  -10.1090   13.0850 C.3    52  LYS52       0.0206
     58  CE        21.5170  -10.9580   13.0120 C.3    52  LYS52       0.1093
     59  NZ        20.4430  -10.3920   13.9050 N.3    52  LYS52      -0.1314
     60  N         29.3100  -12.8310   26.3670 N.3    94  GLU94      -0.1231
     61  CA        28.7040  -13.2980   27.6220 C.3    94  GLU94       0.1699
     62  C         27.1930  -13.1490   27.6140 C.2    94  GLU94       0.2592
     63  O         26.4960  -14.1040   27.2860 O.2    94  GLU94      -0.2718
     64  CB        29.3020  -12.6200   28.8710 C.3    94  GLU94       0.0402
     65  CG        28.7040  -13.1390   30.2170 C.3    94  GLU94       0.1161
     66  CD        29.0870  -12.3090   31.4490 C.2    94  GLU94       0.3649
     67  OE1       29.6780  -11.2180   31.3010 O.co2  94  GLU94      -0.2457
     68  OE2       28.7820  -12.7530   32.5820 O.co2  94  GLU94      -0.2457
     69  N         26.6950  -11.9570   27.9580 N.am   95  ASN95      -0.1960
     70  CA        25.2780  -11.7690   28.3240 C.3    95  ASN95       0.1819
     71  C         24.5840  -10.6250   27.6070 C.2    95  ASN95       0.2621
     72  O         23.5400  -10.1350   28.0610 O.2    95  ASN95      -0.2715
     73  CB        25.1890  -11.5040   29.8250 C.3    95  ASN95       0.1195
     74  CG        25.9350  -10.2460   30.2240 C.2    95  ASN95       0.2630
     75  OD1       26.6480   -9.6400   29.4020 O.2    95  ASN95      -0.2716
     76  ND2       25.7730   -9.8350   31.4760 N.am   95  ASN95      -0.0877
     77  N         25.1760  -10.1800   26.5040 N.am   96  LEU96      -0.1977
     78  CA        24.5800   -9.1450   25.6530 C.3    96  LEU96       0.1596
     79  C         24.5520   -7.7710   26.3210 C.2    96  LEU96       0.2287
     80  O         23.6630   -6.9390   26.0390 O.2    96  LEU96      -0.2864
     81  CB        23.1830   -9.5600   25.1740 C.3    96  LEU96       0.0297
     82  CG        22.8340   -9.2700   23.7280 C.3    96  LEU96       0.0022
     83  CD1       23.7660  -10.0280   22.7930 C.3    96  LEU96       0.0001
     84  CD2       21.3500   -9.6350   23.4880 C.3    96  LEU96       0.0001
     85  N         20.6200  -16.1210   33.2300 N.3   172  ILE172     -0.1245
     86  CA        21.5520  -15.1380   32.6470 C.3   172  ILE172      0.1561
     87  C         21.9180  -14.0630   33.6820 C.2   172  ILE172      0.2260
     88  O         21.0750  -13.6700   34.5000 O.2   172  ILE172     -0.2867
     89  CB        20.9260  -14.4580   31.3760 C.3   172  ILE172      0.0252
     90  CG1       20.6100  -15.4820   30.2650 C.3   172  ILE172      0.0019
     91  CG2       21.7760  -13.2800   30.8670 C.3   172  ILE172      0.0019
     92  CD1       21.8250  -16.1680   29.6160 C.3   172  ILE172      0.0001
     93  N          4.3000   -9.1520   24.8360 N.3   192  ASP192     -0.1225
     94  CA         5.7510   -9.1870   24.7720 C.3   192  ASP192      0.1805
     95  C          6.1480   -8.8380   23.3530 C.2   192  ASP192      0.2598
     96  O          5.3360   -8.9530   22.4080 O.2   192  ASP192     -0.2718
     97  CB         6.2600  -10.6130   25.1090 C.3   192  ASP192      0.1424
     98  CG         7.7650  -10.6730   25.4630 C.2   192  ASP192      0.3668
     99  OD1        8.4930   -9.6370   25.5450 O.co2 192  ASP192     -0.2456
    100  OD2        8.2360  -11.8180   25.6720 O.co2 192  ASP192     -0.2456
    101  N          7.4080   -8.4350   23.2110 N.am  193  ALA193     -0.1966
    102  CA         8.0760   -8.3800   21.9170 C.3   193  ALA193      0.1728
    103  C          8.4570   -9.7970   21.4720 C.2   193  ALA193      0.2616
    104  O          8.5150  -10.7140   22.2930 O.2   193  ALA193     -0.2715
    105  CB         9.3160   -7.5130   22.0140 C.3   193  ALA193      0.0334
    106  N          8.7470   -9.9580   20.1760 N.am  194  CYS194     -0.1954
    107  CA         9.1100  -11.2500   19.5890 C.3   194  CYS194      0.1843
    108  C         10.0320  -11.0370   18.3660 C.2   194  CYS194      0.2625
    109  O         10.4280   -9.8900   18.0890 O.2   194  CYS194     -0.2714
    110  CB         7.8380  -12.0350   19.2290 C.3   194  CYS194      0.0997
    111  SG         8.0400  -13.8810   19.2040 S.3   194  CYS194     -0.0797
    112  N         10.4030  -12.1320   17.6850 N.am  195  GLU195     -0.1963
    113  CA        11.2430  -12.0930   16.4720 C.3   195  GLU195      0.1733
    114  C         10.7590  -11.0470   15.4620 C.2   195  GLU195      0.2616
    115  O          9.6070  -11.0990   15.0170 O.2   195  GLU195     -0.2715
    116  CB        11.3110  -13.4650   15.7800 C.3   195  GLU195      0.0429
    117  CG        12.2940  -13.4780   14.6130 C.3   195  GLU195      0.1163
    118  CD        12.5350  -14.8590   14.0330 C.2   195  GLU195      0.3649
    119  OE1       12.3870  -15.8600   14.7650 O.co2 195  GLU195     -0.2457
    120  OE2       12.8950  -14.9370   12.8370 O.co2 195  GLU195     -0.2457
    121  N         11.6310  -10.1050   15.1020 N.am  196  GLY196     -0.1955
    122  CA        11.2490   -9.0320   14.1740 C.3   196  GLY196      0.1869
    123  C         11.1190   -7.6980   14.8940 C.2   196  GLY196      0.2309
    124  O         11.2660   -6.6480   14.2680 O.2   196  GLY196     -0.2863
    125  N         12.9890   -6.8320   17.7230 N.3   198  SER198     -0.1217
    126  CA        14.1660   -6.4130   18.4760 C.3   198  SER198      0.1889
    127  C         14.8750   -5.2480   17.7870 C.2   198  SER198      0.2288
    128  O         14.7300   -5.0490   16.5730 O.2   198  SER198     -0.2866
    129  CB        15.0750   -7.5880   18.8350 C.3   198  SER198      0.2089
    130  OG        15.6920   -8.1460   17.6990 O.3   198  SER198     -0.2183
    131  N         14.4580   -2.8980   22.6350 N.3   218  VAL218     -0.1231
    132  CA        14.1970   -4.3540   22.6700 C.3   218  VAL218      0.1692
    133  C         15.4930   -5.1670   22.4580 C.2   218  VAL218      0.2593
    134  O         16.1010   -5.1340   21.3670 O.2   218  VAL218     -0.2718
    135  CB        13.0800   -4.7720   21.6370 C.3   218  VAL218      0.0266
    136  CG1       12.8170   -6.2750   21.7080 C.3   218  VAL218      0.0020
    137  CG2       11.7980   -4.0160   21.9180 C.3   218  VAL218      0.0020
    138  N         15.9220   -5.8750   23.5070 N.am  219  SER219     -0.1938
    139  CA        17.2490   -6.5120   23.5120 C.3   219  SER219      0.2055
    140  C         17.1940   -8.0350   23.4230 C.2   219  SER219      0.2643
    141  O         17.7530   -8.6200   22.4860 O.2   219  SER219     -0.2714
    142  CB        18.0820   -6.0740   24.7290 C.3   219  SER219      0.2130
    143  OG        19.3890   -6.6220   24.6600 O.3   219  SER219     -0.2179
    144  N         16.5890   -8.6850   24.4100 N.am  220  TRP220     -0.1959
    145  CA        16.6050  -10.1620   24.4270 C.3   220  TRP220      0.1771
    146  C         15.4780  -10.7830   25.2680 C.2   220  TRP220      0.2620
    147  O         14.8690  -10.1300   26.1150 O.2   220  TRP220     -0.2715
    148  CB        17.9950  -10.6920   24.8570 C.3   220  TRP220      0.0590
    149  CG        18.3880  -10.4030   26.2910 C.ar  220  TRP220      0.0006
    150  CD1       19.0020   -9.2790   26.7600 C.ar  220  TRP220      0.0946
    151  CD2       18.1900  -11.2560   27.4280 C.ar  220  TRP220      0.0152
    152  NE1       19.2200   -9.3870   28.1140 N.ar  220  TRP220     -0.2442
    153  CE2       18.7320  -10.5890   28.5500 C.ar  220  TRP220      0.0810
    154  CE3       17.6250  -12.5330   27.6030 C.ar  220  TRP220      0.0012
    155  CZ2       18.7210  -11.1440   29.8480 C.ar  220  TRP220      0.0191
    156  CZ3       17.6060  -13.0940   28.8940 C.ar  220  TRP220      0.0001
    157  CH2       18.1490  -12.3850   30.0050 C.ar  220  TRP220      0.0015
    158  N         15.1880  -12.0540   25.0010 N.am  221  GLY221     -0.1940
    159  CA        14.1870  -12.7540   25.7850 C.3   221  GLY221      0.2014
    160  C         14.3750  -14.2450   25.6830 C.2   221  GLY221      0.2639
    161  O         15.2530  -14.7250   24.9610 O.2   221  GLY221     -0.2714
    162  N         13.5530  -14.9690   26.4140 N.am  222  GLU222     -0.1963
    163  CA        13.5550  -16.4310   26.3480 C.3   222  GLU222      0.1733
    164  C         12.1510  -16.8520   25.8890 C.2   222  GLU222      0.2617
    165  O         11.1890  -16.7910   26.6480 O.2   222  GLU222     -0.2715
    166  CB        14.0180  -17.0110   27.6920 C.3   222  GLU222      0.0429
    167  CG        15.4890  -16.5650   28.0020 C.3   222  GLU222      0.1163
    168  CD        16.0210  -16.9040   29.4090 C.2   222  GLU222      0.3649
    169  OE1       15.5890  -16.2760   30.3980 O.co2 222  GLU222     -0.2457
    170  OE2       16.9320  -17.7620   29.5060 O.co2 222  GLU222     -0.2457
    171  N         12.0430  -17.1980   24.6080 N.am  223  GLY223     -0.1940
    172  CA        10.7480  -17.3870   23.9660 C.3   223  GLY223      0.2014
    173  C         10.0710  -16.0380   23.7920 C.2   223  GLY223      0.2639
    174  O         10.7430  -15.0020   23.7910 O.2   223  GLY223     -0.2714
    175  N          8.7510  -16.0430   23.6250 N.am  224  CYS224     -0.1967
    176  CA         7.9670  -14.8000   23.6010 C.3   224  CYS224      0.1712
    177  C          6.6550  -14.9730   24.3570 C.2   224  CYS224      0.2296
    178  O          5.9260  -15.9410   24.1300 O.2   224  CYS224     -0.2864
    179  CB         7.6430  -14.3450   22.1720 C.3   224  CYS224      0.0983
    180  SG         8.9860  -14.3380   20.9830 S.3   224  CYS224     -0.0798
    181  N         10.2630  -12.5060   31.1840 N.3   230  TYR230     -0.1227
    182  CA        10.0950  -11.0870   30.8990 C.3   230  TYR230      0.1736
    183  C         10.9980  -10.6990   29.7590 C.2   230  TYR230      0.2596
    184  O         12.0400  -11.3030   29.5860 O.2   230  TYR230     -0.2718
    185  CB        10.4320  -10.2230   32.1340 C.3   230  TYR230      0.0548
    186  CG         9.5790  -10.6280   33.3060 C.ar  230  TYR230     -0.0200
    187  CD1        8.2960  -10.0990   33.4680 C.ar  230  TYR230     -0.0009
    188  CD2       10.0200  -11.5940   34.1970 C.ar  230  TYR230     -0.0009
    189  CE1        7.4770  -10.5220   34.5060 C.ar  230  TYR230      0.0417
    190  CE2        9.2100  -12.0320   35.2380 C.ar  230  TYR230      0.0417
    191  CZ         7.9470  -11.4830   35.4000 C.ar  230  TYR230      0.1957
    192  OH         7.1350  -11.8990   36.4470 O.3   230  TYR230     -0.2866
    193  N         10.5950   -9.7040   28.9800 N.am  231  GLY231     -0.1942
    194  CA        11.4790   -9.1850   27.9420 C.3   231  GLY231      0.2014
    195  C         12.5230   -8.3020   28.5890 C.2   231  GLY231      0.2639
    196  O         12.2410   -7.6190   29.5810 O.2   231  GLY231     -0.2714
    197  N         13.7240   -8.3160   28.0330 N.am  232  PHE232     -0.1959
    198  CA        14.7960   -7.4790   28.5500 C.3   232  PHE232      0.1771
    199  C         15.1380   -6.3860   27.5460 C.2   232  PHE232      0.2619
    200  O         15.0770   -6.6000   26.3430 O.2   232  PHE232     -0.2715
    201  CB        16.0260   -8.3200   28.9180 C.3   232  PHE232      0.0574
    202  CG        15.8840   -9.0520   30.2250 C.ar  232  PHE232     -0.0200
    203  CD1       15.1450  -10.2210   30.3060 C.ar  232  PHE232     -0.0042
    204  CD2       16.4830   -8.5560   31.3790 C.ar  232  PHE232     -0.0042
    205  CE1       15.0020  -10.8970   31.5340 C.ar  232  PHE232     -0.0003
    206  CE2       16.3420   -9.2210   32.6040 C.ar  232  PHE232     -0.0003
    207  CZ        15.6190  -10.3900   32.6680 C.ar  232  PHE232     -0.0000
    208  N         15.5110   -5.2220   28.0780 N.am  233  TYR233     -0.1974
    209  CA        15.6650   -3.9940   27.3160 C.3   233  TYR233      0.1639
    210  C         16.9810   -3.3130   27.6720 C.2   233  TYR233      0.2290
    211  O         17.3380   -3.2510   28.8390 O.2   233  TYR233     -0.2864
    212  CB        14.4990   -3.0410   27.6470 C.3   233  TYR233      0.0560
    213  CG        13.1680   -3.6140   27.2230 C.ar  233  TYR233     -0.0198
    214  CD1       12.5040   -4.5550   28.0270 C.ar  233  TYR233     -0.0009
    215  CD2       12.5930   -3.2650   26.0040 C.ar  233  TYR233     -0.0009
    216  CE1       11.2890   -5.1210   27.6250 C.ar  233  TYR233      0.0417
    217  CE2       11.3770   -3.8290   25.5960 C.ar  233  TYR233      0.0417
    218  CZ        10.7390   -4.7500   26.4220 C.ar  233  TYR233      0.1957
    219  OH         9.5570   -5.3290   26.0230 O.3   233  TYR233     -0.2866
@<TRIPOS>BOND
     1     7     6    1
     2     6     8    1
     3     6     5    1
     4     1     2    1
     5     5     2    1
     6     2     3    1
     7     3     9   am
     8     3     4    2
     9    52    53    1
    10    52    51    1
    11    52    55    1
    12    53    54    2
    13     9    10    1
    14    40    39    2
    15    56    55    1
    16    56    57    1
    17    12    11    2
    18   120   118   ar
    19    39    38    1
    20    58    57    1
    21    58    59    1
    22    10    11    1
    23    10    13    1
    24    13    14    1
    25   118   117    1
    26   118   119   ar
    27   122   123    1
    28   122   121    1
    29   124   123    2
    30    38    41    1
    31    38    37    1
    32    41    42    1
    33   117   116    1
    34   115   114    2
    35   121   114   am
    36    28    27    2
    37   114   113    1
    38    25    26    1
    39    47    44   ar
    40    47    49   ar
    41    42    44   ar
    42    42    43   ar
    43   116   113    1
    44    27    26    1
    45    18    17    2
    46    44    46   ar
    47    26    29    1
    48    49    50   ar
    49   113   112    1
    50   128   127    2
    51    43    45   ar
    52    17    16    1
    53    29    30    1
    54    46    45   ar
    55    46    48   ar
    56    50    48   ar
    57   112   108   am
    58   130   129    1
    59   125   126    1
    60    32    30   ar
    61    32    34   ar
    62   127   126    1
    63    30    31   ar
    64    16    15    1
    65    16    19    1
    66   109   108    2
    67    22    24   ar
    68    22    20   ar
    69   108   107    1
    70   126   129    1
    71    24    23   ar
    72    34    35   ar
    73    19    20    1
    74    20    21   ar
    75    31    33   ar
    76   111   110    1
    77   111   180    1
    78   110   107    1
    79   107   106    1
    80    23    21   ar
    81    35    33   ar
    82    35    36    1
    83   106   103   am
    84   180   179    1
    85   134   133    2
    86   103   102    1
    87   103   104    2
    88   135   136    1
    89   135   137    1
    90   135   132    1
    91   102   105    1
    92   102   101    1
    93   179   176    1
    94    96    95    2
    95   133   132    1
    96   133   138   am
    97   141   140    2
    98   131   132    1
    99    83    82    1
   100   101    95   am
   101    95    94    1
   102   140   139    1
   103   140   144   am
   104    84    82    1
   105   138   139    1
   106   139   142    1
   107   176   175    1
   108   176   177    1
   109   175   173   am
   110    82    81    1
   111   174   173    2
   112   173   172    1
   113   172   171    1
   114   178   177    2
   115   144   145    1
   116   145   148    1
   117   145   146    1
   118   171   164   am
   119   143   142    1
   120    94    93    1
   121    94    97    1
   122   148   149    1
   123   161   160    2
   124   158   146   am
   125   158   159    1
   126    97    98    1
   127    81    78    1
   128   146   147    2
   129    98    99   ar
   130    98   100   ar
   131   217   215   ar
   132   217   218   ar
   133    78    79    1
   134    78    77    1
   135   160   159    1
   136   160   162   am
   137   164   163    1
   138   164   165    2
   139   215   213   ar
   140   219   218    1
   141    80    79    2
   142   149   150   ar
   143   149   151   ar
   144   200   199    2
   145   163   162    1
   146   163   166    1
   147    60    61    1
   148   218   216   ar
   149    77    71   am
   150   150   152   ar
   151   213   212    1
   152   213   214   ar
   153    63    62    2
   154   209   212    1
   155   209   210    1
   156   209   208    1
   157   151   154   ar
   158   151   153   ar
   159   199   208   am
   160   199   198    1
   161   154   156   ar
   162    71    72    2
   163    71    70    1
   164    62    61    1
   165    62    69   am
   166    61    64    1
   167   216   214   ar
   168   210   211    2
   169   166   167    1
   170   194   195    1
   171   194   193    1
   172    69    70    1
   173   167   168    1
   174   197   198    1
   175   197   195   am
   176   152   153   ar
   177    70    73    1
   178   198   201    1
   179   153   155   ar
   180   195   196    2
   181    64    65    1
   182   156   157   ar
   183   201   202    1
   184   193   183   am
   185    75    74    2
   186   168   170   ar
   187   168   169   ar
   188   184   183    2
   189    92    90    1
   190   183   182    1
   191    73    74    1
   192   155   157   ar
   193    65    66    1
   194    74    76   am
   195   202   203   ar
   196   202   204   ar
   197    90    89    1
   198   203   205   ar
   199    91    89    1
   200   182   181    1
   201   182   185    1
   202    67    66   ar
   203    89    86    1
   204   204   206   ar
   205    66    68   ar
   206   205   207   ar
   207   185   186    1
   208   206   207   ar
   209    86    85    1
   210    86    87    1
   211   186   187   ar
   212   186   188   ar
   213   187   189   ar
   214    87    88    2
   215   188   190   ar
   216   189   191   ar
   217   190   191   ar
   218   191   192    1
