@<TRIPOS>MOLECULE
tmp/2cfaA00.pdb
 161 159 0 0 0
SMALL
GASTEIGER

@<TRIPOS>ATOM
      1  N         49.7780   -8.9370  107.9270 N.3    48  LYS48      -0.1245
      2  CA        48.5290   -8.3640  107.4160 C.3    48  LYS48       0.1561
      3  C         48.0630   -7.0920  108.1250 C.2    48  LYS48       0.2260
      4  O         46.8710   -6.7970  108.1490 O.2    48  LYS48      -0.2867
      5  CB        47.4000   -9.4060  107.3760 C.3    48  LYS48       0.0271
      6  CG        47.8000  -10.7290  106.7810 C.3    48  LYS48       0.0035
      7  CD        48.4170  -10.5770  105.4150 C.3    48  LYS48       0.0206
      8  CE        48.7990  -11.9300  104.8660 C.3    48  LYS48       0.1093
      9  NZ        47.7630  -12.9550  105.1500 N.3    48  LYS48      -0.1314
     10  N         47.4910   -4.1150  107.4320 N.3    50  TRP50      -0.1241
     11  CA        47.3700   -3.3420  106.1820 C.3    50  TRP50       0.1605
     12  C         47.1840   -1.8380  106.3520 C.2    50  TRP50       0.2264
     13  O         47.5210   -1.0710  105.4480 O.2    50  TRP50      -0.2867
     14  CB        46.2660   -3.8960  105.2780 C.3    50  TRP50       0.0550
     15  CG        46.6330   -5.2090  104.7050 C.ar   50  TRP50       0.0003
     16  CD1       45.9740   -6.3860  104.8790 C.ar   50  TRP50       0.0946
     17  CD2       47.7660   -5.4950  103.8740 C.ar   50  TRP50       0.0152
     18  NE1       46.6240   -7.3940  104.2110 N.ar   50  TRP50      -0.2442
     19  CE2       47.7310   -6.8810  103.5920 C.ar   50  TRP50       0.0810
     20  CE3       48.8110   -4.7190  103.3490 C.ar   50  TRP50       0.0012
     21  CZ2       48.6980   -7.5130  102.8090 C.ar   50  TRP50       0.0191
     22  CZ3       49.7790   -5.3480  102.5730 C.ar   50  TRP50       0.0001
     23  CH2       49.7110   -6.7320  102.3060 C.ar   50  TRP50       0.0015
     24  N         47.4770    2.3320  104.3830 N.3    54  GLU54      -0.1245
     25  CA        46.2840    3.0380  103.9320 C.3    54  GLU54       0.1567
     26  C         46.2700    4.5110  104.3730 C.2    54  GLU54       0.2260
     27  O         45.2570    5.2230  104.2110 O.2    54  GLU54      -0.2867
     28  CB        45.0340    2.2680  104.3690 C.3    54  GLU54       0.0388
     29  CG        45.1080    0.7950  103.9180 C.3    54  GLU54       0.1160
     30  CD        43.8720   -0.0150  104.2260 C.2    54  GLU54       0.3649
     31  OE1       43.6890   -0.4360  105.3830 O.co2  54  GLU54      -0.2457
     32  OE2       43.0900   -0.2590  103.2980 O.co2  54  GLU54      -0.2457
     33  N         37.7210   -2.3230   86.9580 N.3    74  ARG74      -0.1231
     34  CA        37.2330   -3.3940   87.8090 C.3    74  ARG74       0.1694
     35  C         37.9190   -3.4460   89.1670 C.2    74  ARG74       0.2592
     36  O         37.3970   -4.0490   90.0970 O.2    74  ARG74      -0.2718
     37  CB        37.2760   -4.7490   87.0870 C.3    74  ARG74       0.0321
     38  CG        36.2940   -4.8240   85.8760 C.3    74  ARG74       0.0489
     39  CD        34.8360   -4.9190   86.3440 C.3    74  ARG74       0.2205
     40  NE        34.6890   -5.9820   87.3330 N.pl3  74  ARG74      -0.0865
     41  CZ        34.5420   -7.2750   87.0520 C.cat  74  ARG74       0.5346
     42  NH1       34.4770   -7.7040   85.8000 N.pl3  74  ARG74       0.1354
     43  NH2       34.4430   -8.1400   88.0310 N.pl3  74  ARG74       0.1354
     44  N         39.0730   -2.7910   89.2850 N.am   75  HIS75      -0.1962
     45  CA        39.7450   -2.6760   90.5810 C.3    75  HIS75       0.1787
     46  C         39.0680   -1.6120   91.4100 C.2    75  HIS75       0.2620
     47  O         39.5080   -0.4660   91.4800 O.2    75  HIS75      -0.2715
     48  CB        41.2580   -2.4550   90.4080 C.3    75  HIS75       0.0785
     49  CG        41.9370   -3.6120   89.7520 C.ar   75  HIS75       0.0821
     50  ND1       42.5660   -4.6060   90.4700 N.ar   75  HIS75      -0.2267
     51  CD2       42.0250   -3.9730   88.4490 C.ar   75  HIS75       0.1154
     52  CE1       43.0410   -5.5140   89.6350 C.ar   75  HIS75       0.1986
     53  NE2       42.7220   -5.1570   88.4040 N.ar   75  HIS75      -0.2212
     54  N         37.9910   -2.0320   92.0680 N.am   76  ARG76      -0.1963
     55  CA        36.9900   -1.1040   92.6230 C.3    76  ARG76       0.1729
     56  C         37.3950   -0.4180   93.9350 C.2    76  ARG76       0.2617
     57  O         36.7050    0.5080   94.4080 O.2    76  ARG76      -0.2715
     58  CB        35.5950   -1.7560   92.7020 C.3    76  ARG76       0.0348
     59  CG        35.5870   -3.1950   93.2040 C.3    76  ARG76       0.0492
     60  CD        34.1550   -3.8010   93.3280 C.3    76  ARG76       0.2205
     61  NE        33.4010   -3.2090   94.4380 N.pl3  76  ARG76      -0.0865
     62  CZ        33.5810   -3.5090   95.7250 C.cat  76  ARG76       0.5346
     63  NH1       32.8580   -2.9130   96.6580 N.pl3  76  ARG76       0.1354
     64  NH2       34.4880   -4.4010   96.0950 N.pl3  76  ARG76       0.1354
     65  N         38.5280   -0.8180   94.5040 N.am   77  SER77      -0.1936
     66  CA        39.0660   -0.0580   95.6510 C.3    77  SER77       0.2055
     67  C         39.6730    1.2820   95.2100 C.2    77  SER77       0.2643
     68  O         39.8940    2.1620   96.0290 O.2    77  SER77      -0.2714
     69  CB        40.0690   -0.8790   96.4560 C.3    77  SER77       0.2130
     70  OG        41.2260   -1.1410   95.6840 O.3    77  SER77      -0.2179
     71  N         39.9290    1.4200   93.9140 N.am   78  PHE78      -0.1973
     72  CA        40.4960    2.6280   93.3320 C.3    78  PHE78       0.1639
     73  C         39.4180    3.6090   92.9230 C.2    78  PHE78       0.2290
     74  O         38.2810    3.2340   92.6580 O.2    78  PHE78      -0.2864
     75  CB        41.3550    2.2920   92.1050 C.3    78  PHE78       0.0560
     76  CG        42.6750    1.6600   92.4410 C.ar   78  PHE78      -0.0200
     77  CD1       42.7950    0.2730   92.5280 C.ar   78  PHE78      -0.0042
     78  CD2       43.8010    2.4460   92.6720 C.ar   78  PHE78      -0.0042
     79  CE1       44.0340   -0.3190   92.8390 C.ar   78  PHE78      -0.0003
     80  CE2       45.0340    1.8640   92.9910 C.ar   78  PHE78      -0.0003
     81  CZ        45.1470    0.4850   93.0720 C.ar   78  PHE78      -0.0000
     82  N         48.4840    0.4470   99.9350 N.3   135  ARG135     -0.1231
     83  CA        47.9390   -0.9150  100.0170 C.3   135  ARG135      0.1694
     84  C         47.3130   -1.4090   98.7050 C.2   135  ARG135      0.2592
     85  O         47.6080   -2.5260   98.2430 O.2   135  ARG135     -0.2718
     86  CB        46.8710   -0.9860  101.1110 C.3   135  ARG135      0.0321
     87  CG        46.4170   -2.4060  101.4130 C.3   135  ARG135      0.0489
     88  CD        44.9080   -2.5080  101.3880 C.3   135  ARG135      0.2205
     89  NE        44.4370   -3.8780  101.5150 N.pl3 135  ARG135     -0.0865
     90  CZ        43.7310   -4.3230  102.5410 C.cat 135  ARG135      0.5346
     91  NH1       43.3300   -5.5820  102.5630 N.pl3 135  ARG135      0.1354
     92  NH2       43.3950   -3.5040  103.5230 N.pl3 135  ARG135      0.1354
     93  N         46.4580   -0.5800   98.1100 N.am  136  ASP136     -0.1974
     94  CA        45.7010   -0.9780   96.9360 C.3   136  ASP136      0.1709
     95  C         46.5840   -1.1010   95.6930 C.2   136  ASP136      0.2293
     96  O         46.3840   -1.9940   94.8650 O.2   136  ASP136     -0.2864
     97  CB        44.5050   -0.0350   96.7030 C.3   136  ASP136      0.1436
     98  CG        43.5020   -0.0660   97.8620 C.2   136  ASP136      0.3671
     99  OD1       42.8500    0.9590   98.1510 O.co2 136  ASP136     -0.2456
    100  OD2       43.3620   -1.1180   98.5110 O.co2 136  ASP136     -0.2456
    101  N         48.7180   -4.6010   95.7240 N.3   139  HIS139     -0.1226
    102  CA        48.0060   -5.7650   95.1950 C.3   139  HIS139      0.1752
    103  C         47.5420   -5.6010   93.7610 C.2   139  HIS139      0.2596
    104  O         47.3190   -6.6010   93.0840 O.2   139  HIS139     -0.2718
    105  CB        46.8620   -6.1950   96.1120 C.3   139  HIS139      0.0759
    106  CG        47.2930   -6.4010   97.5290 C.ar  139  HIS139      0.0818
    107  ND1       46.8060   -5.6490   98.5720 N.ar  139  HIS139     -0.2268
    108  CD2       48.2110   -7.2350   98.0630 C.ar  139  HIS139      0.1154
    109  CE1       47.3870   -6.0280   99.6960 C.ar  139  HIS139      0.1986
    110  NE2       48.2400   -6.9980   99.4140 N.ar  139  HIS139     -0.2212
    111  N         47.3990   -4.3610   93.2920 N.am  140  TYR140     -0.1976
    112  CA        47.0710   -4.1520   91.8860 C.3   140  TYR140      0.1639
    113  C         48.2960   -4.4870   91.0270 C.2   140  TYR140      0.2290
    114  O         48.2100   -5.2960   90.0990 O.2   140  TYR140     -0.2864
    115  CB        46.5610   -2.7270   91.6060 C.3   140  TYR140      0.0560
    116  CG        46.5650   -2.4170   90.1230 C.ar  140  TYR140     -0.0198
    117  CD1       45.5330   -2.8660   89.2840 C.ar  140  TYR140     -0.0009
    118  CD2       47.6220   -1.7160   89.5480 C.ar  140  TYR140     -0.0009
    119  CE1       45.5590   -2.6120   87.9090 C.ar  140  TYR140      0.0417
    120  CE2       47.6520   -1.4610   88.1790 C.ar  140  TYR140      0.0417
    121  CZ        46.6240   -1.9100   87.3720 C.ar  140  TYR140      0.1957
    122  OH        46.6810   -1.6350   86.0240 O.3   140  TYR140     -0.2866
    123  N         51.0790   -6.1440   91.9170 N.3   142  GLU142     -0.1231
    124  CA        51.3380   -7.5660   92.1700 C.3   142  GLU142      0.1699
    125  C         50.5530   -8.4280   91.1900 C.2   142  GLU142      0.2592
    126  O         51.1270   -9.2420   90.4680 O.2   142  GLU142     -0.2718
    127  CB        50.8970   -7.9170   93.6010 C.3   142  GLU142      0.0402
    128  CG        51.8540   -8.7590   94.4460 C.3   142  GLU142      0.1161
    129  CD        51.4330   -8.7840   95.9310 C.2   142  GLU142      0.3649
    130  OE1       50.2590   -9.1540   96.2350 O.co2 142  GLU142     -0.2457
    131  OE2       52.2770   -8.4190   96.7950 O.co2 142  GLU142     -0.2457
    132  N         49.2330   -8.2340   91.1700 N.am  143  LEU143     -0.1966
    133  CA        48.3410   -9.0340   90.3560 C.3   143  LEU143      0.1728
    134  C         48.5670   -8.8330   88.8640 C.2   143  LEU143      0.2616
    135  O         48.7230   -9.7980   88.1280 O.2   143  LEU143     -0.2715
    136  CB        46.8670   -8.7420   90.6950 C.3   143  LEU143      0.0311
    137  CG        45.8410   -9.6370   89.9880 C.3   143  LEU143      0.0022
    138  CD1       45.9210  -11.0790   90.4710 C.3   143  LEU143      0.0001
    139  CD2       44.4280   -9.0990   90.1480 C.3   143  LEU143      0.0001
    140  N         48.5700   -7.5800   88.4270 N.am  144  ARG144     -0.1977
    141  CA        48.5300   -7.2780   87.0040 C.3   144  ARG144      0.1597
    142  C         49.8770   -7.3370   86.2820 C.2   144  ARG144      0.2287
    143  O         49.9160   -7.1950   85.0610 O.2   144  ARG144     -0.2864
    144  CB        47.7900   -5.9650   86.7430 C.3   144  ARG144      0.0334
    145  CG        46.3110   -6.0010   87.1050 C.3   144  ARG144      0.0492
    146  CD        45.5560   -6.9890   86.2520 C.3   144  ARG144      0.2205
    147  NE        44.1320   -7.0450   86.5830 N.pl3 144  ARG144     -0.0865
    148  CZ        43.2830   -7.9490   86.0910 C.cat 144  ARG144      0.5346
    149  NH1       43.7070   -8.8840   85.2420 N.pl3 144  ARG144      0.1354
    150  NH2       42.0070   -7.9230   86.4560 N.pl3 144  ARG144      0.1354
    151  N         48.8660  -14.3430   83.1670 N.3   148  GLY148     -0.1210
    152  CA        47.4260  -14.4930   83.3450 C.3   148  GLY148      0.1956
    153  C         46.6640  -13.2620   82.8810 C.2   148  GLY148      0.2612
    154  O         45.6240  -13.3820   82.2260 O.2   148  GLY148     -0.2717
    155  N         47.1700  -12.0770   83.2280 N.am  149  THR149     -0.1952
    156  CA        46.6080  -10.8390   82.6990 C.3   149  THR149      0.1897
    157  C         47.2060  -10.6120   81.3090 C.2   149  THR149      0.2313
    158  O         48.3060  -11.0920   81.0210 O.2   149  THR149     -0.2863
    159  CB        46.8010   -9.6160   83.6490 C.3   149  THR149      0.1794
    160  OG1       47.9220   -8.8290   83.2410 O.3   149  THR149     -0.2208
    161  CG2       46.9910  -10.0580   85.0860 C.3   149  THR149      0.0378
@<TRIPOS>BOND
     1   158   157    2
     2   157   156    1
     3   154   153    2
     4   156   155    1
     5   156   159    1
     6   153   155   am
     7   153   152    1
     8   151   152    1
     9   160   159    1
    10   159   161    1
    11   143   142    2
    12   149   148    1
    13    42    41    1
    14    38    39    1
    15    38    37    1
    16   122   121    1
    17   148   150    1
    18   148   147    2
    19   146   147    1
    20   146   145    1
    21   142   141    1
    22    39    40    1
    23   144   141    1
    24   144   145    1
    25    33    34    1
    26   141   140    1
    27    41    40    2
    28    41    43    1
    29    37    34    1
    30   121   119   ar
    31   121   120   ar
    32    34    35    1
    33   119   117   ar
    34   135   134    2
    35   120   118   ar
    36    53    51   ar
    37    53    52   ar
    38   140   134   am
    39    51    49   ar
    40   134   133    1
    41    35    44   am
    42    35    36    2
    43   117   116   ar
    44    44    45    1
    45   118   116   ar
    46    52    50   ar
    47    49    48    1
    48    49    50   ar
    49   137   139    1
    50   137   138    1
    51   137   136    1
    52   114   113    2
    53   116   115    1
    54   133   136    1
    55   133   132    1
    56    48    45    1
    57   126   125    2
    58    45    46    1
    59   113   112    1
    60   132   125   am
    61   125   124    1
    62    46    47    2
    63    46    54   am
    64   115   112    1
    65   112   111    1
    66   123   124    1
    67    54    55    1
    68    75    76    1
    69    75    72    1
    70   124   127    1
    71    76    77   ar
    72    76    78   ar
    73    77    79   ar
    74    55    58    1
    75    55    56    1
    76    74    73    2
    77    78    80   ar
    78    58    59    1
    79    79    81   ar
    80    73    72    1
    81    80    81   ar
    82   104   103    2
    83    59    60    1
    84   111   103   am
    85    60    61    1
    86    72    71    1
    87   127   128    1
    88   103   102    1
    89    71    67   am
    90    56    57    2
    91    56    65   am
    92    61    62    2
    93   128   129    1
    94    65    66    1
    95    96    95    2
    96   102   101    1
    97   102   105    1
    98    67    66    1
    99    67    68    2
   100    66    69    1
   101    70    69    1
   102    95    94    1
   103    62    64    1
   104    62    63    1
   105   129   130   ar
   106   129   131   ar
   107   105   106    1
   108    97    94    1
   109    97    98    1
   110    94    93    1
   111   106   108   ar
   112   106   107   ar
   113    98    99   ar
   114    98   100   ar
   115   108   110   ar
   116    93    84   am
   117    85    84    2
   118   107   109   ar
   119    84    83    1
   120   110   109   ar
   121    82    83    1
   122    83    86    1
   123    86    87    1
   124    88    87    1
   125    88    89    1
   126    89    90    2
   127    23    22   ar
   128    23    21   ar
   129    90    91    1
   130    90    92    1
   131    22    20   ar
   132    21    19   ar
   133    32    30   ar
   134    20    17   ar
   135    19    17   ar
   136    19    18   ar
   137    17    15   ar
   138    29    30    1
   139    29    28    1
   140    25    28    1
   141    25    26    1
   142    25    24    1
   143    27    26    2
   144    18    16   ar
   145    30    31   ar
   146    15    16   ar
   147    15    14    1
   148     8     9    1
   149     8     7    1
   150    14    11    1
   151     7     6    1
   152    13    12    2
   153    11    12    1
   154    11    10    1
   155     6     5    1
   156     5     2    1
   157     2     1    1
   158     2     3    1
   159     3     4    2
