@<TRIPOS>MOLECULE
tmp/2cfbA00.pdb
 115 109 0 0 0
SMALL
GASTEIGER

@<TRIPOS>ATOM
      1  N         23.9430   80.5210   27.0510 N.3    82  SER82      -0.1202
      2  CA        24.6540   81.5980   27.7140 C.3    82  SER82       0.2020
      3  C         23.9150   81.9120   28.9450 C.2    82  SER82       0.2619
      4  O         22.7780   81.5240   29.0750 O.2    82  SER82      -0.2717
      5  CB        24.6670   82.8340   26.8410 C.3    82  SER82       0.2103
      6  OG        23.4500   82.9900   26.1550 O.3    82  SER82      -0.2182
      7  N         24.5720   82.5880   29.8740 N.am   83  GLY83      -0.1942
      8  CA        23.8670   83.1510   31.0520 C.3    83  GLY83       0.2014
      9  C         22.8660   84.2260   30.6300 C.2    83  GLY83       0.2639
     10  O         21.8250   84.3990   31.2450 O.2    83  GLY83      -0.2714
     11  N         23.1430   84.9170   29.5320 N.am   84  THR84      -0.1950
     12  CA        22.2560   85.9690   29.1440 C.3    84  THR84       0.1897
     13  C         20.9560   85.3400   28.8070 C.2    84  THR84       0.2313
     14  O         19.8690   85.7480   29.2590 O.2    84  THR84      -0.2863
     15  CB        22.7540   86.7130   27.9630 C.3    84  THR84       0.1794
     16  OG1       23.8950   87.5080   28.3400 O.3    84  THR84      -0.2208
     17  CG2       21.6810   87.6310   27.4840 C.3    84  THR84       0.0378
     18  N         18.9600   84.3660   31.7510 N.3    87  CYS87      -0.1235
     19  CA        18.2570   85.4940   32.3270 C.3    87  CYS87       0.1677
     20  C         17.0480   85.8480   31.4890 C.2    87  CYS87       0.2270
     21  O         16.0210   86.3250   32.0110 O.2    87  CYS87      -0.2867
     22  CB        19.1510   86.7100   32.4560 C.3    87  CYS87       0.0956
     23  SG        20.4520   86.4690   33.6420 S.3    87  CYS87      -0.0801
     24  N         23.7150   93.7460   36.2280 N.3   110  TYR110     -0.1227
     25  CA        23.8550   93.3870   34.8490 C.3   110  TYR110      0.1736
     26  C         23.3430   91.9720   34.5910 C.2   110  TYR110      0.2595
     27  O         23.7840   91.0120   35.2170 O.2   110  TYR110     -0.2718
     28  CB        25.3130   93.5000   34.4770 C.3   110  TYR110      0.0548
     29  CG        25.6570   92.9340   33.1180 C.ar  110  TYR110     -0.0200
     30  CD1       25.4370   93.6810   31.9590 C.ar  110  TYR110     -0.0009
     31  CD2       26.2400   91.6410   33.0030 C.ar  110  TYR110     -0.0009
     32  CE1       25.7920   93.1880   30.7290 C.ar  110  TYR110      0.0417
     33  CE2       26.5950   91.1160   31.7700 C.ar  110  TYR110      0.0417
     34  CZ        26.3600   91.9000   30.6280 C.ar  110  TYR110      0.1957
     35  OH        26.7000   91.3990   29.3860 O.3   110  TYR110     -0.2866
     36  N         22.3950   91.8300   33.6750 N.am  111  HIS111     -0.1961
     37  CA        21.8670   90.4870   33.3850 C.3   111  HIS111      0.1787
     38  C         22.0590   90.0680   31.9080 C.2   111  HIS111      0.2621
     39  O         21.2860   89.2640   31.4050 O.2   111  HIS111     -0.2715
     40  CB        20.3830   90.3620   33.8280 C.3   111  HIS111      0.0785
     41  CG        20.1250   90.8470   35.2230 C.ar  111  HIS111      0.0821
     42  ND1       20.5480   90.1640   36.3370 N.ar  111  HIS111     -0.2267
     43  CD2       19.5040   91.9560   35.6820 C.ar  111  HIS111      0.1154
     44  CE1       20.2120   90.8380   37.4240 C.ar  111  HIS111      0.1986
     45  NE2       19.5760   91.9290   37.0530 N.ar  111  HIS111     -0.2212
     46  N         23.0970   90.5890   31.2420 N.am  112  GLY112     -0.1940
     47  CA        23.3240   90.3670   29.7960 C.3   112  GLY112      0.2014
     48  C         23.0770   91.6080   28.9450 C.2   112  GLY112      0.2638
     49  O         23.1710   92.7160   29.4220 O.2   112  GLY112     -0.2714
     50  N         22.6770   91.4050   27.6970 N.am  113  HIS113     -0.1973
     51  CA        22.5310   92.4790   26.6730 C.3   113  HIS113      0.1656
     52  C         21.3360   92.1910   25.7350 C.2   113  HIS113      0.2291
     53  O         20.2510   92.7530   25.8920 O.2   113  HIS113     -0.2864
     54  CB        23.8250   92.4870   25.8520 C.3   113  HIS113      0.0771
     55  CG        24.5570   91.1710   25.9140 C.ar  113  HIS113      0.0820
     56  ND1       25.4980   90.8890   26.8920 N.ar  113  HIS113     -0.2267
     57  CD2       24.4240   90.0320   25.1830 C.ar  113  HIS113      0.1154
     58  CE1       25.9480   89.6540   26.7340 C.ar  113  HIS113      0.1986
     59  NE2       25.3120   89.1120   25.7050 N.ar  113  HIS113     -0.2212
     60  N         21.4150   90.3720   41.1680 N.3   144  GLU144     -0.1245
     61  CA        22.6550   89.7520   41.5900 C.3   144  GLU144      0.1567
     62  C         22.6570   89.8260   43.2000 C.2   144  GLU144      0.2260
     63  O         22.6880   90.9200   43.8000 O.2   144  GLU144     -0.2867
     64  CB        23.8760   90.5030   41.0060 C.3   144  GLU144      0.0388
     65  CG        23.9610   90.6490   39.4380 C.3   144  GLU144      0.1160
     66  CD        25.2460   91.4400   38.9570 C.2   144  GLU144      0.3649
     67  OE1       26.3510   90.9550   39.2730 O.co2 144  GLU144     -0.2457
     68  OE2       25.1620   92.5270   38.2900 O.co2 144  GLU144     -0.2457
     69  N         29.2050   93.5990   38.8100 N.3   149  ASN149     -0.1240
     70  CA        29.3400   94.4530   37.6060 C.3   149  ASN149      0.1653
     71  C         29.2420   95.9580   37.7970 C.2   149  ASN149      0.2266
     72  O         29.2160   96.7330   36.8350 O.2   149  ASN149     -0.2867
     73  CB        28.4310   93.9680   36.5120 C.3   149  ASN149      0.1155
     74  CG        28.9650   92.7090   35.8680 C.2   149  ASN149      0.2627
     75  OD1       30.1020   92.7190   35.3540 O.2   149  ASN149     -0.2716
     76  ND2       28.1740   91.6040   35.9160 N.am  149  ASN149     -0.0877
     77  N         20.0690   86.2020   40.1950 N.3   177  ASP177     -0.1239
     78  CA        20.9950   85.9050   39.1180 C.3   177  ASP177      0.1674
     79  C         22.3360   85.5000   39.6760 C.2   177  ASP177      0.2266
     80  O         23.1050   86.3780   40.1490 O.2   177  ASP177     -0.2867
     81  CB        21.1570   87.1000   38.1740 C.3   177  ASP177      0.1410
     82  CG        22.1580   86.8440   37.1160 C.2   177  ASP177      0.3668
     83  OD1       22.7170   85.7220   37.1570 O.co2 177  ASP177     -0.2456
     84  OD2       22.3890   87.7450   36.2750 O.co2 177  ASP177     -0.2456
     85  N         24.7910   83.7130   37.8430 N.3   179  VAL179     -0.1231
     86  CA        25.6940   83.3890   36.7540 C.3   179  VAL179      0.1692
     87  C         27.1360   83.5880   37.2580 C.2   179  VAL179      0.2591
     88  O         28.0440   82.8000   37.0150 O.2   179  VAL179     -0.2718
     89  CB        25.3300   84.2550   35.5080 C.3   179  VAL179      0.0266
     90  CG1       26.3800   84.1900   34.4290 C.3   179  VAL179      0.0020
     91  CG2       23.9990   83.7800   34.9400 C.3   179  VAL179      0.0020
     92  N         27.3140   84.6050   38.0500 N.am  180  MET180     -0.1979
     93  CA        28.6000   84.8780   38.5720 C.3   180  MET180      0.1605
     94  C         28.7740   84.3570   39.9740 C.2   180  MET180      0.2287
     95  O         29.8230   83.8250   40.2900 O.2   180  MET180     -0.2864
     96  CB        28.8380   86.3760   38.5170 C.3   180  MET180      0.0413
     97  CG        30.1360   86.8500   39.1460 C.3   180  MET180      0.0598
     98  SD        30.5030   88.5480   38.5990 S.3   180  MET180     -0.1393
     99  CE        30.9570   88.1640   36.8770 C.3   180  MET180      0.0692
    100  N         28.6500   80.7250   33.8390 N.3   205  LYS205     -0.1245
    101  CA        30.0650   80.8590   34.0310 C.3   205  LYS205      0.1561
    102  C         30.7490   79.5790   34.5040 C.2   205  LYS205      0.2260
    103  O         31.0590   78.6990   33.6870 O.2   205  LYS205     -0.2867
    104  CB        30.3590   82.1760   34.7470 C.3   205  LYS205      0.0271
    105  CG        29.9500   83.3530   33.8080 C.3   205  LYS205      0.0035
    106  CD        30.1670   84.8590   34.1870 C.3   205  LYS205      0.0206
    107  CE        29.8860   85.8350   32.8870 C.3   205  LYS205      0.1093
    108  NZ        29.4990   87.3680   33.1450 N.3   205  LYS205     -0.1314
    109  N         27.8380   78.5450   28.4220 N.3   213  VAL213     -0.1245
    110  CA        26.6800   77.7730   28.8660 C.3   213  VAL213      0.1561
    111  C         25.8000   78.6000   29.8200 C.2   213  VAL213      0.2260
    112  O         26.2400   79.6180   30.3730 O.2   213  VAL213     -0.2867
    113  CB        27.1560   76.5280   29.6530 C.3   213  VAL213      0.0252
    114  CG1       27.6400   76.9280   31.0090 C.3   213  VAL213      0.0019
    115  CG2       26.0390   75.4840   29.7690 C.3   213  VAL213      0.0019
@<TRIPOS>BOND
     1    57    59   ar
     2    57    55   ar
     3    59    58   ar
     4    52    53    2
     5    52    51    1
     6    54    55    1
     7    54    51    1
     8    55    56   ar
     9     6     5    1
    10    51    50    1
    11    58    56   ar
    12     5     2    1
    13     1     2    1
    14    17    15    1
    15    50    48   am
    16     2     3    1
    17    15    16    1
    18    15    12    1
    19   109   110    1
    20    13    12    1
    21    13    14    2
    22   110   113    1
    23   110   111    1
    24    48    49    2
    25    48    47    1
    26     3     4    2
    27     3     7   am
    28    12    11    1
    29    35    34    1
    30    11     9   am
    31   113   115    1
    32   113   114    1
    33    47    46    1
    34   111   112    2
    35     7     8    1
    36    34    32   ar
    37    34    33   ar
    38     9     8    1
    39     9    10    2
    40    32    30   ar
    41    46    38   am
    42    39    38    2
    43    20    21    2
    44    20    19    1
    45    18    19    1
    46    33    31   ar
    47    38    37    1
    48    30    29   ar
    49    19    22    1
    50    22    23    1
    51   107   108    1
    52   107   106    1
    53    31    29   ar
    54    29    28    1
    55    37    36    1
    56    37    40    1
    57    36    26   am
    58   103   102    2
    59   105   106    1
    60   105   104    1
    61    40    41    1
    62   100   101    1
    63   101   102    1
    64   101   104    1
    65    90    89    1
    66    28    25    1
    67    26    25    1
    68    26    27    2
    69    25    24    1
    70    91    89    1
    71    41    43   ar
    72    41    42   ar
    73    75    74    2
    74    89    86    1
    75    43    45   ar
    76    74    76   am
    77    74    73    1
    78    84    82   ar
    79    42    44   ar
    80    73    70    1
    81    86    87    1
    82    86    85    1
    83    72    71    2
    84    99    98    1
    85    88    87    2
    86    45    44   ar
    87    82    83   ar
    88    82    81    1
    89    87    92   am
    90    70    71    1
    91    70    69    1
    92    92    93    1
    93    81    78    1
    94    68    66   ar
    95    96    93    1
    96    96    97    1
    97    93    94    1
    98    98    97    1
    99    66    67   ar
   100    66    65    1
   101    78    79    1
   102    78    77    1
   103    65    64    1
   104    79    80    2
   105    94    95    2
   106    64    61    1
   107    60    61    1
   108    61    62    1
   109    62    63    2
