@<TRIPOS>MOLECULE
tmp/2cfcC01.pdb
 114 111 0 0 0
SMALL
GASTEIGER

@<TRIPOS>ATOM
      1  N         26.4050 -120.4890   74.4250 N.3    91  THR91      -0.1218
      2  CA        25.6250 -119.4650   75.1200 C.3    91  THR91       0.1862
      3  C         24.7950 -118.6410   74.1550 C.2    91  THR91       0.2287
      4  O         23.7650 -118.0820   74.5270 O.2    91  THR91      -0.2866
      5  CB        26.5210 -118.4460   75.8370 C.3    91  THR91       0.1770
      6  OG1       27.2130 -117.6710   74.8500 O.3    91  THR91      -0.2211
      7  CG2       27.5410 -119.1340   76.7290 C.3    91  THR91       0.0375
      8  N         23.2350 -126.3900   84.0630 N.3   142  SER142     -0.1217
      9  CA        23.7100 -125.1040   84.5840 C.3   142  SER142      0.1889
     10  C         22.7820 -124.6550   85.6890 C.2   142  SER142      0.2288
     11  O         21.6820 -125.2060   85.8400 O.2   142  SER142     -0.2866
     12  CB        23.6800 -124.0450   83.4530 C.3   142  SER142      0.2089
     13  OG        23.7480 -122.7180   83.9650 O.3   142  SER142     -0.2183
     14  N         19.3360 -116.5950   84.0360 N.3   149  PHE149     -0.1241
     15  CA        20.5170 -115.7600   83.9140 C.3   149  PHE149      0.1605
     16  C         20.0270 -114.5050   83.2160 C.2   149  PHE149      0.2264
     17  O         19.5120 -114.5830   82.0900 O.2   149  PHE149     -0.2867
     18  CB        21.5530 -116.4140   83.0140 C.3   149  PHE149      0.0534
     19  CG        22.4580 -117.3570   83.7220 C.ar  149  PHE149     -0.0203
     20  CD1       23.3100 -118.1810   82.9970 C.ar  149  PHE149     -0.0042
     21  CD2       22.4750 -117.4150   85.1150 C.ar  149  PHE149     -0.0042
     22  CE1       24.1710 -119.0520   83.6510 C.ar  149  PHE149     -0.0003
     23  CE2       23.3310 -118.2810   85.7820 C.ar  149  PHE149     -0.0003
     24  CZ        24.1790 -119.1000   85.0480 C.ar  149  PHE149     -0.0000
     25  N         20.2870 -113.6000   79.0870 N.3   152  ARG152     -0.1245
     26  CA        20.7410 -114.8130   78.4000 C.3   152  ARG152      0.1563
     27  C         19.5240 -115.7010   78.3010 C.2   152  ARG152      0.2260
     28  O         19.4710 -116.8020   78.8640 O.2   152  ARG152     -0.2867
     29  CB        21.8620 -115.5020   79.1980 C.3   152  ARG152      0.0307
     30  CG        23.2280 -114.8400   79.0060 C.3   152  ARG152      0.0489
     31  CD        23.5770 -114.8010   77.4960 C.3   152  ARG152      0.2205
     32  NE        25.0110 -114.6610   77.2240 N.pl3 152  ARG152     -0.0865
     33  CZ        25.5270 -114.5360   76.0020 C.cat 152  ARG152      0.5346
     34  NH1       24.7300 -114.5310   74.9380 N.pl3 152  ARG152      0.1354
     35  NH2       26.8390 -114.4140   75.8410 N.pl3 152  ARG152      0.1354
     36  N         19.8600 -119.2940   76.2820 N.3   155  TYR155     -0.1241
     37  CA        20.6750 -120.1670   77.1050 C.3   155  TYR155      0.1605
     38  C         19.8650 -120.6810   78.2700 C.2   155  TYR155      0.2264
     39  O         19.8340 -121.8820   78.5470 O.2   155  TYR155     -0.2867
     40  CB        21.8640 -119.4030   77.6570 C.3   155  TYR155      0.0534
     41  CG        22.7870 -120.2660   78.4790 C.ar  155  TYR155     -0.0201
     42  CD1       23.7440 -121.0910   77.8610 C.ar  155  TYR155     -0.0009
     43  CD2       22.7210 -120.2560   79.8700 C.ar  155  TYR155     -0.0009
     44  CE1       24.6210 -121.8800   78.6190 C.ar  155  TYR155      0.0417
     45  CE2       23.5870 -121.0440   80.6360 C.ar  155  TYR155      0.0417
     46  CZ        24.5340 -121.8440   80.0080 C.ar  155  TYR155      0.1957
     47  OH        25.4000 -122.5960   80.7860 O.3   155  TYR155     -0.2866
     48  N         26.5720 -126.3530   86.9270 N.3   185  PRO185     -0.2102
     49  CA        27.5930 -125.4170   87.4100 C.3   185  PRO185      0.1504
     50  C         27.0710 -123.9910   87.4540 C.2   185  PRO185      0.2576
     51  O         26.1400 -123.6320   86.7080 O.2   185  PRO185     -0.2718
     52  CB        28.7330 -125.5610   86.3880 C.3   185  PRO185      0.0282
     53  CG        28.4440 -126.9350   85.7190 C.3   185  PRO185      0.0208
     54  CD        26.9390 -126.9290   85.6160 C.3   185  PRO185      0.0893
     55  N         27.6750 -123.2080   88.3370 N.am  186  GLY186     -0.1943
     56  CA        27.3630 -121.7980   88.4530 C.3   186  GLY186      0.2014
     57  C         28.3250 -121.1330   87.4830 C.2   186  GLY186      0.2639
     58  O         28.4700 -121.6050   86.3410 O.2   186  GLY186     -0.2714
     59  N         28.9910 -120.0670   87.9160 N.am  187  MET187     -0.1963
     60  CA        29.9520 -119.3550   87.0690 C.3   187  MET187      0.1736
     61  C         31.3040 -120.0690   87.1200 C.2   187  MET187      0.2616
     62  O         31.8790 -120.2470   88.1900 O.2   187  MET187     -0.2715
     63  CB        30.1250 -117.9150   87.5610 C.3   187  MET187      0.0427
     64  CG        31.0190 -117.0530   86.6590 C.3   187  MET187      0.0599
     65  SD        30.2930 -116.7940   84.9780 S.3   187  MET187     -0.1393
     66  CE        31.6690 -117.1670   83.9780 C.3   187  MET187      0.0692
     67  N         31.7870 -120.4990   85.9640 N.am  188  ILE188     -0.1977
     68  CA        33.0580 -121.2040   85.8620 C.3   188  ILE188      0.1596
     69  C         33.9120 -120.4390   84.8730 C.2   188  ILE188      0.2287
     70  O         33.3800 -119.8520   83.9410 O.2   188  ILE188     -0.2864
     71  CB        32.8680 -122.6190   85.2960 C.3   188  ILE188      0.0276
     72  CG1       31.7100 -123.3180   86.0090 C.3   188  ILE188      0.0022
     73  CG2       34.1380 -123.4120   85.4690 C.3   188  ILE188      0.0022
     74  CD1       31.9880 -123.5680   87.4970 C.3   188  ILE188      0.0001
     75  N         34.3470 -119.9760   77.0770 N.3   192  MET192     -0.1230
     76  CA        32.9810 -119.5250   76.8170 C.3   192  MET192      0.1702
     77  C         32.5870 -118.3500   77.7140 C.2   192  MET192      0.2593
     78  O         31.6010 -117.6610   77.4450 O.2   192  MET192     -0.2718
     79  CB        31.9960 -120.6830   77.0570 C.3   192  MET192      0.0401
     80  CG        30.5210 -120.2840   77.0510 C.3   192  MET192      0.0596
     81  SD        29.3900 -121.4300   77.9310 S.3   192  MET192     -0.1393
     82  CE        28.8990 -122.5190   76.5880 C.3   192  MET192      0.0692
     83  N         33.3640 -118.1110   78.7680 N.am  193  THR193     -0.1953
     84  CA        33.0320 -117.0540   79.7120 C.3   193  THR193      0.1897
     85  C         34.1210 -116.0370   80.0490 C.2   193  THR193      0.2313
     86  O         33.8240 -114.9860   80.6180 O.2   193  THR193     -0.2863
     87  CB        32.5630 -117.6680   81.0360 C.3   193  THR193      0.1794
     88  OG1       33.6490 -118.3860   81.6350 O.3   193  THR193     -0.2208
     89  CG2       31.4080 -118.6270   80.8020 C.3   193  THR193      0.0378
     90  N         35.4720 -113.7970   78.5020 N.3   195  TRP195     -0.1227
     91  CA        35.2110 -112.4550   77.9820 C.3   195  TRP195      0.1737
     92  C         34.6890 -111.5670   79.1090 C.2   195  TRP195      0.2595
     93  O         35.1940 -110.4680   79.3370 O.2   195  TRP195     -0.2718
     94  CB        34.1660 -112.4950   76.8600 C.3   195  TRP195      0.0564
     95  CG        32.7440 -112.5510   77.3600 C.ar  195  TRP195      0.0003
     96  CD1       32.1150 -113.6210   77.9350 C.ar  195  TRP195      0.0946
     97  CD2       31.8090 -111.4610   77.4150 C.ar  195  TRP195      0.0152
     98  NE1       30.8520 -113.2630   78.3490 N.ar  195  TRP195     -0.2442
     99  CE2       30.6380 -111.9440   78.0430 C.ar  195  TRP195      0.0810
    100  CE3       31.8490 -110.1210   76.9980 C.ar  195  TRP195      0.0012
    101  CZ2       29.5160 -111.1350   78.2640 C.ar  195  TRP195      0.0191
    102  CZ3       30.7310 -109.3160   77.2190 C.ar  195  TRP195      0.0001
    103  CH2       29.5820 -109.8280   77.8470 C.ar  195  TRP195      0.0015
    104  N         33.6730 -112.0690   79.8060 N.am  196  ARG196     -0.1980
    105  CA        33.0320 -111.3760   80.9140 C.3   196  ARG196      0.1597
    106  C         33.9390 -111.3750   82.1370 C.2   196  ARG196      0.2287
    107  O         34.2800 -110.3220   82.6740 O.2   196  ARG196     -0.2864
    108  CB        31.7150 -112.0780   81.2580 C.3   196  ARG196      0.0334
    109  CG        31.0040 -111.5400   82.4900 C.3   196  ARG196      0.0492
    110  CD        30.0510 -112.5840   83.0740 C.3   196  ARG196      0.2205
    111  NE        29.0140 -112.9920   82.1300 N.pl3 196  ARG196     -0.0865
    112  CZ        28.0510 -112.1880   81.6900 C.cat 196  ARG196      0.5346
    113  NH1       27.9950 -110.9330   82.1120 N.pl3 196  ARG196      0.1354
    114  NH2       27.1450 -112.6390   80.8310 N.pl3 196  ARG196      0.1354
@<TRIPOS>BOND
     1     3     4    2
     2     3     2    1
     3     1     2    1
     4     6     5    1
     5    34    33    1
     6     2     5    1
     7     5     7    1
     8    35    33    1
     9    33    32    2
    10    36    37    1
    11    82    81    1
    12    76    79    1
    13    76    75    1
    14    76    77    1
    15    94    95    1
    16    94    91    1
    17   100   102   ar
    18   100    97   ar
    19    80    79    1
    20    80    81    1
    21    37    40    1
    22    37    38    1
    23   102   103   ar
    24    32    31    1
    25    95    97   ar
    26    95    96   ar
    27    97    99   ar
    28    78    77    2
    29    31    30    1
    30    40    41    1
    31    77    83   am
    32   103   101   ar
    33    42    41   ar
    34    42    44   ar
    35    96    98   ar
    36    91    90    1
    37    91    92    1
    38    99   101   ar
    39    99    98   ar
    40    38    39    2
    41    27    26    1
    42    27    28    2
    43    26    25    1
    44    26    29    1
    45    41    43   ar
    46    44    46   ar
    47    83    84    1
    48    30    29    1
    49    92    93    2
    50    92   104   am
    51    84    85    1
    52    84    87    1
    53   104   105    1
    54    43    45   ar
    55    46    45   ar
    56    46    47    1
    57    85    86    2
    58    89    87    1
    59   114   112    1
    60   105   108    1
    61   105   106    1
    62    87    88    1
    63   108   109    1
    64   112   113    1
    65   112   111    2
    66    17    16    2
    67   111   110    1
    68   106   107    2
    69   109   110    1
    70    20    22   ar
    71    20    19   ar
    72    18    19    1
    73    18    15    1
    74    16    15    1
    75    12    13    1
    76    12     9    1
    77    22    24   ar
    78    19    21   ar
    79    15    14    1
    80    70    69    2
    81    66    65    1
    82     8     9    1
    83     9    10    1
    84    69    68    1
    85    65    64    1
    86    24    23   ar
    87    21    23   ar
    88    71    73    1
    89    71    68    1
    90    71    72    1
    91    54    53    1
    92    54    48    1
    93    10    11    2
    94    53    52    1
    95    68    67    1
    96    67    61   am
    97    72    74    1
    98    58    57    2
    99    52    49    1
   100    64    63    1
   101    51    50    2
   102    48    49    1
   103    60    61    1
   104    60    63    1
   105    60    59    1
   106    61    62    2
   107    49    50    1
   108    50    55   am
   109    57    59   am
   110    57    56    1
   111    55    56    1
