@<TRIPOS>MOLECULE
tmp/2cfdA00.pdb
 172 170 0 0 0
SMALL
GASTEIGER

@<TRIPOS>ATOM
      1  N         32.9540   -2.0830    1.8830 N.3    92  VAL92      -0.1231
      2  CA        31.8530   -1.4350    1.1870 C.3    92  VAL92       0.1692
      3  C         32.2230    0.0080    0.8610 C.2    92  VAL92       0.2592
      4  O         32.7650    0.7250    1.7000 O.2    92  VAL92      -0.2718
      5  CB        30.5350   -1.4700    1.9960 C.3    92  VAL92       0.0266
      6  CG1       29.4230   -0.7380    1.2410 C.3    92  VAL92       0.0020
      7  CG2       30.1150   -2.9200    2.3160 C.3    92  VAL92       0.0020
      8  N         31.9120    0.4210   -0.3650 N.am   93  LEU93      -0.1966
      9  CA        32.1460    1.7880   -0.8060 C.3    93  LEU93       0.1728
     10  C         30.9800    2.6990   -0.4450 C.2    93  LEU93       0.2616
     11  O         29.8130    2.3110   -0.5540 O.2    93  LEU93      -0.2715
     12  CB        32.3270    1.8390   -2.3190 C.3    93  LEU93       0.0311
     13  CG        33.5600    1.1570   -2.8770 C.3    93  LEU93       0.0022
     14  CD1       33.5070    1.2260   -4.3930 C.3    93  LEU93       0.0001
     15  CD2       34.8170    1.8200   -2.3430 C.3    93  LEU93       0.0001
     16  N         31.3200    3.9180   -0.0340 N.am   94  GLU94      -0.1963
     17  CA        30.3460    4.9740    0.2160 C.3    94  GLU94       0.1733
     18  C         29.4430    5.1670   -1.0020 C.2    94  GLU94       0.2616
     19  O         28.2370    5.3570   -0.8580 O.2    94  GLU94      -0.2715
     20  CB        31.0780    6.2820    0.5300 C.3    94  GLU94       0.0429
     21  CG        30.1860    7.4090    1.0320 C.3    94  GLU94       0.1163
     22  CD        30.9390    8.7180    1.2060 C.2    94  GLU94       0.3649
     23  OE1       30.2910    9.7840    1.1380 O.co2  94  GLU94      -0.2457
     24  OE2       32.1750    8.6920    1.3990 O.co2  94  GLU94      -0.2457
     25  N         30.0310    5.0970   -2.1940 N.am   95  GLU95      -0.1977
     26  CA        29.2930    5.3230   -3.4340 C.3    95  GLU95       0.1602
     27  C         28.3240    4.1830   -3.8120 C.2    95  GLU95       0.2287
     28  O         27.5060    4.3430   -4.7020 O.2    95  GLU95      -0.2864
     29  CB        30.2630    5.5970   -4.5870 C.3    95  GLU95       0.0415
     30  CG        31.0130    4.3630   -5.0790 C.3    95  GLU95       0.1163
     31  CD        31.9790    4.6740   -6.2110 C.2    95  GLU95       0.3649
     32  OE1       32.9810    5.3730   -5.9500 O.co2  95  GLU95      -0.2457
     33  OE2       31.7340    4.2110   -7.3490 O.co2  95  GLU95      -0.2457
     34  N         26.1130    3.0820   -1.7260 N.3    97  PHE97      -0.1241
     35  CA        24.9830    3.1930   -0.7990 C.3    97  PHE97       0.1605
     36  C         23.6320    3.0990   -1.5000 C.2    97  PHE97       0.2264
     37  O         22.6600    2.6030   -0.9180 O.2    97  PHE97      -0.2867
     38  CB        25.0510    4.4850    0.0360 C.3    97  PHE97       0.0534
     39  CG        24.2980    5.6640   -0.5720 C.ar   97  PHE97      -0.0203
     40  CD1       23.0250    6.0060   -0.1190 C.ar   97  PHE97      -0.0042
     41  CD2       24.8740    6.4320   -1.5880 C.ar   97  PHE97      -0.0042
     42  CE1       22.3330    7.0910   -0.6680 C.ar   97  PHE97      -0.0003
     43  CE2       24.1920    7.5230   -2.1400 C.ar   97  PHE97      -0.0003
     44  CZ        22.9160    7.8500   -1.6830 C.ar   97  PHE97      -0.0000
     45  N         18.6190   -0.5930    1.7610 N.3   127  ALA127     -0.1231
     46  CA        19.8970   -0.5000    2.4200 C.3   127  ALA127      0.1679
     47  C         20.9360   -1.3690    1.6980 C.2   127  ALA127      0.2434
     48  O         20.6250   -2.4490    1.1900 O.2   127  ALA127     -0.2733
     49  CB        19.7600   -0.9270    3.8790 C.3   127  ALA127      0.0304
     50  N         22.1690   -0.8860    1.6420 N.am  128  PRO128     -0.2718
     51  CA        23.2950   -1.6510    1.0920 C.3   128  PRO128      0.1535
     52  C         23.9360   -2.5300    2.1690 C.2   128  PRO128      0.2598
     53  O         24.8310   -2.1040    2.8920 O.2   128  PRO128     -0.2715
     54  CB        24.2650   -0.5500    0.6790 C.3   128  PRO128      0.0310
     55  CG        24.0260    0.5350    1.7330 C.3   128  PRO128      0.0237
     56  CD        22.5800    0.4560    2.0870 C.3   128  PRO128      0.0939
     57  N         23.4790   -3.7640    2.2640 N.am  129  LEU129     -0.1978
     58  CA        23.7310   -4.5760    3.4360 C.3   129  LEU129      0.1596
     59  C         24.7810   -5.6250    3.1150 C.2   129  LEU129      0.2287
     60  O         24.7130   -6.2710    2.0590 O.2   129  LEU129     -0.2864
     61  CB        22.4130   -5.2220    3.8840 C.3   129  LEU129      0.0297
     62  CG        21.3730   -4.1580    4.3040 C.3   129  LEU129      0.0022
     63  CD1       20.0310   -4.7740    4.6180 C.3   129  LEU129      0.0001
     64  CD2       21.8860   -3.3440    5.4770 C.3   129  LEU129      0.0001
     65  N         12.6380    3.6760    8.7890 N.3   160  TRP160     -0.1241
     66  CA        12.7920    2.5430    9.7030 C.3   160  TRP160      0.1605
     67  C         11.4670    2.1100   10.3220 C.2   160  TRP160      0.2264
     68  O         11.3050    0.9720   10.7590 O.2   160  TRP160     -0.2867
     69  CB        13.8240    2.9010   10.7930 C.3   160  TRP160      0.0550
     70  CG        15.0910    3.3810   10.1900 C.ar  160  TRP160      0.0003
     71  CD1       15.5310    4.6660   10.1090 C.ar  160  TRP160      0.0946
     72  CD2       16.0650    2.5860    9.5050 C.ar  160  TRP160      0.0152
     73  NE1       16.7340    4.7210    9.4440 N.ar  160  TRP160     -0.2442
     74  CE2       17.0800    3.4590    9.0490 C.ar  160  TRP160      0.0810
     75  CE3       16.1900    1.2200    9.2330 C.ar  160  TRP160      0.0012
     76  CZ2       18.2010    3.0080    8.3380 C.ar  160  TRP160      0.0191
     77  CZ3       17.3100    0.7700    8.5270 C.ar  160  TRP160      0.0001
     78  CH2       18.2920    1.6700    8.0900 C.ar  160  TRP160      0.0015
     79  N         22.7910  -10.6860   13.9870 N.3   276  TYR276     -0.1241
     80  CA        21.3520  -10.7650   14.2700 C.3   276  TYR276      0.1605
     81  C         20.8870  -12.2020   14.5120 C.2   276  TYR276      0.2264
     82  O         21.4210  -13.1750   13.9380 O.2   276  TYR276     -0.2867
     83  CB        20.5450  -10.0990   13.1460 C.3   276  TYR276      0.0534
     84  CG        20.5680   -8.6080   13.2590 C.ar  276  TYR276     -0.0201
     85  CD1       21.6840   -7.8950   12.8650 C.ar  276  TYR276     -0.0009
     86  CD2       19.5030   -7.9300   13.8000 C.ar  276  TYR276     -0.0009
     87  CE1       21.7320   -6.5420   12.9790 C.ar  276  TYR276      0.0417
     88  CE2       19.5380   -6.5590   13.9360 C.ar  276  TYR276      0.0417
     89  CZ        20.6670   -5.8730   13.5220 C.ar  276  TYR276      0.1957
     90  OH        20.7260   -4.5070   13.6650 O.3   276  TYR276     -0.2866
     91  N         26.6210   -7.2620   10.5980 N.3   288  TYR288     -0.1241
     92  CA        27.2410   -6.0540   10.0810 C.3   288  TYR288      0.1605
     93  C         28.5290   -5.7730   10.8280 C.2   288  TYR288      0.2264
     94  O         28.5040   -5.4460   12.0090 O.2   288  TYR288     -0.2867
     95  CB        26.2330   -4.9010   10.1290 C.3   288  TYR288      0.0534
     96  CG        24.9820   -5.2210    9.3340 C.ar  288  TYR288     -0.0201
     97  CD1       23.7140   -5.2070    9.9260 C.ar  288  TYR288     -0.0009
     98  CD2       25.0700   -5.6020    7.9960 C.ar  288  TYR288     -0.0009
     99  CE1       22.5750   -5.5480    9.1820 C.ar  288  TYR288      0.0417
    100  CE2       23.9570   -5.9340    7.2650 C.ar  288  TYR288      0.0417
    101  CZ        22.7080   -5.8980    7.8480 C.ar  288  TYR288      0.1957
    102  OH        21.6100   -6.2470    7.0710 O.3   288  TYR288     -0.2866
    103  N         30.5880   -3.2790   11.3030 N.3   290  ASP290     -0.1239
    104  CA        30.6370   -1.8370   11.1350 C.3   290  ASP290      0.1674
    105  C         32.0930   -1.3610   10.9130 C.2   290  ASP290      0.2266
    106  O         32.3430   -0.5110   10.0610 O.2   290  ASP290     -0.2867
    107  CB        29.9510   -1.1360   12.3090 C.3   290  ASP290      0.1410
    108  CG        28.4460   -1.4440   12.3910 C.2   290  ASP290      0.3668
    109  OD1       27.8510   -1.2750   13.4770 O.co2 290  ASP290     -0.2456
    110  OD2       27.7750   -1.8740   11.4200 O.co2 290  ASP290     -0.2456
    111  N         32.4350   -1.7210    6.8310 N.3   294  TYR294     -0.1241
    112  CA        31.9450   -0.3770    6.4860 C.3   294  TYR294      0.1605
    113  C         32.9460    0.7480    6.7420 C.2   294  TYR294      0.2264
    114  O         32.8690    1.7770    6.0880 O.2   294  TYR294     -0.2867
    115  CB        30.6190   -0.0810    7.1990 C.3   294  TYR294      0.0534
    116  CG        29.4760   -0.8930    6.6150 C.ar  294  TYR294     -0.0201
    117  CD1       29.1340   -2.1400    7.1560 C.ar  294  TYR294     -0.0009
    118  CD2       28.7680   -0.4400    5.5030 C.ar  294  TYR294     -0.0009
    119  CE1       28.1040   -2.9070    6.6060 C.ar  294  TYR294      0.0417
    120  CE2       27.7400   -1.2010    4.9470 C.ar  294  TYR294      0.0417
    121  CZ        27.4030   -2.4170    5.5010 C.ar  294  TYR294      0.1957
    122  OH        26.3870   -3.1740    4.9490 O.3   294  TYR294     -0.2866
    123  N         32.7730    7.6360    8.5840 N.3   299  TYR299     -0.1241
    124  CA        31.4300    8.1340    8.8900 C.3   299  TYR299      0.1605
    125  C         31.3740    8.8640   10.2320 C.2   299  TYR299      0.2264
    126  O         30.2980    9.1140   10.7870 O.2   299  TYR299     -0.2867
    127  CB        30.4400    6.9770    8.8370 C.3   299  TYR299      0.0534
    128  CG        30.4010    6.3090    7.4730 C.ar  299  TYR299     -0.0201
    129  CD1       30.0650    7.0320    6.3360 C.ar  299  TYR299     -0.0009
    130  CD2       30.6900    4.9690    7.3230 C.ar  299  TYR299     -0.0009
    131  CE1       30.0290    6.4440    5.0890 C.ar  299  TYR299      0.0417
    132  CE2       30.6560    4.3590    6.0780 C.ar  299  TYR299      0.0417
    133  CZ        30.3280    5.0960    4.9620 C.ar  299  TYR299      0.1957
    134  OH        30.2840    4.5040    3.7250 O.3   299  TYR299     -0.2866
    135  N         28.1970    7.2030   12.4510 N.3   370  THR370     -0.1203
    136  CA        26.8810    6.7380   12.0460 C.3   370  THR370      0.1994
    137  C         27.0370    5.6840   10.9660 C.2   370  THR370      0.2618
    138  O         27.6270    5.9730    9.9330 O.2   370  THR370     -0.2717
    139  CB        26.0810    7.8960   11.4630 C.3   370  THR370      0.1784
    140  OG1       25.9020    8.8960   12.4610 O.3   370  THR370     -0.2211
    141  CG2       24.6700    7.4500   11.1070 C.3   370  THR370      0.0376
    142  N         26.4980    4.4910   11.2020 N.am  371  ILE371     -0.1965
    143  CA        26.4850    3.4040   10.2080 C.3   371  ILE371      0.1727
    144  C         25.0290    3.0590    9.9140 C.2   371  ILE371      0.2617
    145  O         24.3980    2.3070   10.6730 O.2   371  ILE371     -0.2715
    146  CB        27.2170    2.1370   10.7440 C.3   371  ILE371      0.0290
    147  CG1       28.6390    2.4660   11.2130 C.3   371  ILE371      0.0022
    148  CG2       27.2570    1.0460    9.6770 C.3   371  ILE371      0.0023
    149  CD1       29.5240    2.9810   10.1300 C.3   371  ILE371      0.0001
    150  N         24.4880    3.6300    8.8440 N.am  372  GLY372     -0.1940
    151  CA        23.0810    3.4420    8.5160 C.3   372  GLY372      0.2014
    152  C         22.1760    3.8850    9.6510 C.2   372  GLY372      0.2638
    153  O         22.1540    5.0610   10.0210 O.2   372  GLY372     -0.2714
    154  N         21.4460    2.9300   10.2290 N.am  373  ASN373     -0.1972
    155  CA        20.5860    3.1950   11.3850 C.3   373  ASN373      0.1688
    156  C         21.3150    3.3940   12.7270 C.2   373  ASN373      0.2292
    157  O         20.7790    4.1070   13.5800 O.2   373  ASN373     -0.2864
    158  CB        19.5340    2.0810   11.5570 C.3   373  ASN373      0.1181
    159  CG        20.1560    0.7140   11.7650 C.2   373  ASN373      0.2629
    160  OD1       20.8000    0.1840   10.8660 O.2   373  ASN373     -0.2716
    161  ND2       19.9790    0.1420   12.9520 N.am  373  ASN373     -0.0877
    162  N         17.1450   -1.5040   14.0720 N.3   398  PHE398     -0.1241
    163  CA        16.8910   -2.1300   12.7740 C.3   398  PHE398      0.1605
    164  C         15.5970   -2.9030   12.9290 C.2   398  PHE398      0.2264
    165  O         15.4520   -3.6830   13.8720 O.2   398  PHE398     -0.2867
    166  CB        18.0330   -3.0750   12.3880 C.3   398  PHE398      0.0534
    167  CG        18.0390   -3.4820   10.9370 C.ar  398  PHE398     -0.0203
    168  CD1       18.9180   -2.8850   10.0400 C.ar  398  PHE398     -0.0042
    169  CD2       17.1880   -4.4740   10.4730 C.ar  398  PHE398     -0.0042
    170  CE1       18.9370   -3.2600    8.6970 C.ar  398  PHE398     -0.0003
    171  CE2       17.2070   -4.8560    9.1470 C.ar  398  PHE398     -0.0003
    172  CZ        18.0860   -4.2390    8.2490 C.ar  398  PHE398     -0.0000
@<TRIPOS>BOND
     1    33    31   ar
     2    31    32   ar
     3    31    30    1
     4    30    29    1
     5    28    27    2
     6    29    26    1
     7    14    13    1
     8    27    26    1
     9    26    25    1
    10    13    15    1
    11    13    12    1
    12    12     9    1
    13    25    18   am
    14    43    44   ar
    15    43    41   ar
    16    34    35    1
    17    44    42   ar
    18    41    39   ar
    19    36    37    2
    20    36    35    1
    21    18    19    2
    22    18    17    1
    23     9    10    1
    24     9     8    1
    25    35    38    1
    26    42    40   ar
    27    39    40   ar
    28    39    38    1
    29    11    10    2
    30    10    16   am
    31     8     3   am
    32    16    17    1
    33    17    20    1
    34    20    21    1
    35    54    51    1
    36    54    55    1
    37     3     2    1
    38     3     4    2
    39    21    22    1
    40    51    50    1
    41    51    52    1
    42    23    22   ar
    43     2     1    1
    44     2     5    1
    45    48    47    2
    46    22    24   ar
    47     6     5    1
    48    50    47   am
    49    50    56    1
    50    47    46    1
    51    55    56    1
    52    45    46    1
    53     5     7    1
    54    60    59    2
    55    52    57   am
    56    52    53    2
    57    57    58    1
    58    46    49    1
    59    59    58    1
    60    58    61    1
    61   134   133    1
    62    61    62    1
    63    62    63    1
    64    62    64    1
    65   120   121   ar
    66   120   118   ar
    67   122   121    1
    68   133   131   ar
    69   133   132   ar
    70   131   129   ar
    71   121   119   ar
    72   118   116   ar
    73   132   130   ar
    74   114   113    2
    75   129   128   ar
    76   112   113    1
    77   112   111    1
    78   112   115    1
    79   119   117   ar
    80   116   117   ar
    81   116   115    1
    82   102   101    1
    83   100   101   ar
    84   100    98   ar
    85   130   128   ar
    86   128   127    1
    87   101    99   ar
    88    98    96   ar
    89    78    76   ar
    90    78    77   ar
    91   172   170   ar
    92   172   171   ar
    93    76    74   ar
    94   151   150    1
    95   151   152    1
    96    77    75   ar
    97   123   124    1
    98   170   168   ar
    99    65    66    1
   100   127   124    1
   101   150   144   am
   102   124   125    1
   103    74    73   ar
   104    74    72   ar
   105   171   169   ar
   106    99    97   ar
   107    75    72   ar
   108    96    97   ar
   109    96    95    1
   110    73    71   ar
   111    72    70   ar
   112   152   153    2
   113   152   154   am
   114   148   146    1
   115    66    67    1
   116    66    69    1
   117   144   143    1
   118   144   145    2
   119   138   137    2
   120   168   167   ar
   121   106   105    2
   122    92    95    1
   123    92    91    1
   124    92    93    1
   125    71    70   ar
   126   149   147    1
   127    70    69    1
   128   143   146    1
   129   143   142    1
   130   154   155    1
   131   125   126    2
   132    67    68    2
   133   169   167   ar
   134   146   147    1
   135    93    94    2
   136   160   159    2
   137   105   104    1
   138   167   166    1
   139   137   142   am
   140   137   136    1
   141   141   139    1
   142   104   103    1
   143   104   107    1
   144   155   158    1
   145   155   156    1
   146   110   108   ar
   147   139   136    1
   148   139   140    1
   149   158   159    1
   150   159   161   am
   151   136   135    1
   152   107   108    1
   153   166   163    1
   154   108   109   ar
   155   156   157    2
   156   163   164    1
   157   163   162    1
   158    85    87   ar
   159    85    84   ar
   160   164   165    2
   161    87    89   ar
   162    83    84    1
   163    83    80    1
   164    84    86   ar
   165    89    90    1
   166    89    88   ar
   167    86    88   ar
   168    82    81    2
   169    79    80    1
   170    80    81    1
