@<TRIPOS>MOLECULE
tmp/2cffA00.pdb
 84 82 0 0 0
SMALL
GASTEIGER

@<TRIPOS>ATOM
      1  N        -13.1010   25.1250  -36.5720 N.3   102  SER102     -0.1202
      2  CA       -13.9550   24.8820  -35.4230 C.3   102  SER102      0.2020
      3  C        -14.3620   26.1760  -34.7400 C.2   102  SER102      0.2619
      4  O        -15.3330   26.8340  -35.1310 O.2   102  SER102     -0.2717
      5  CB       -13.2450   23.9660  -34.4340 C.3   102  SER102      0.2103
      6  OG       -11.9270   24.4380  -34.1680 O.3   102  SER102     -0.2182
      7  N        -13.6020   26.5430  -33.7230 N.am  103  SER103     -0.1951
      8  CA       -13.8950   27.7040  -32.9080 C.3   103  SER103      0.1924
      9  C        -14.2880   28.9350  -33.7180 C.2   103  SER103      0.2314
     10  O        -15.0490   29.7650  -33.2460 O.2   103  SER103     -0.2863
     11  CB       -12.6890   28.0370  -32.0310 C.3   103  SER103      0.2116
     12  OG       -11.6770   28.6650  -32.8040 O.3   103  SER103     -0.2180
     13  N        -17.9780   28.9570  -34.8250 N.3   106  LEU106     -0.1245
     14  CA       -18.8960   29.2770  -33.7240 C.3   106  LEU106      0.1561
     15  C        -18.8090   30.7360  -33.2720 C.2   106  LEU106      0.2260
     16  O        -19.7570   31.2690  -32.6870 O.2   106  LEU106     -0.2867
     17  CB       -18.7250   28.3180  -32.5390 C.3   106  LEU106      0.0270
     18  CG       -19.0310   26.8230  -32.7100 C.3   106  LEU106      0.0019
     19  CD1      -18.9750   26.1820  -31.3450 C.3   106  LEU106      0.0001
     20  CD2      -20.3860   26.5520  -33.3650 C.3   106  LEU106      0.0001
     21  N        -15.8600   21.0370  -40.5950 N.3   124  PHE124     -0.1227
     22  CA       -16.0940   21.4430  -39.2130 C.3   124  PHE124      0.1736
     23  C        -15.7610   20.3290  -38.2410 C.2   124  PHE124      0.2596
     24  O        -16.2710   19.1990  -38.3520 O.2   124  PHE124     -0.2718
     25  CB       -17.5210   21.9750  -39.0310 C.3   124  PHE124      0.0547
     26  CG       -17.8910   22.3180  -37.6030 C.ar  124  PHE124     -0.0202
     27  CD1      -17.5310   23.5370  -37.0480 C.ar  124  PHE124     -0.0042
     28  CD2      -18.6300   21.4260  -36.8340 C.ar  124  PHE124     -0.0042
     29  CE1      -17.9080   23.8570  -35.7440 C.ar  124  PHE124     -0.0003
     30  CE2      -18.9950   21.7310  -35.5500 C.ar  124  PHE124     -0.0003
     31  CZ       -18.6440   22.9380  -34.9970 C.ar  124  PHE124     -0.0000
     32  N        -14.8960   20.6530  -37.2890 N.am  125  SER125     -0.1938
     33  CA       -14.4800   19.7050  -36.2810 C.3   125  SER125      0.2055
     34  C        -15.4650   19.6560  -35.1250 C.2   125  SER125      0.2643
     35  O        -15.5810   20.6200  -34.3610 O.2   125  SER125     -0.2714
     36  CB       -13.1100   20.0880  -35.7320 C.3   125  SER125      0.2130
     37  OG       -12.8480   19.3580  -34.5500 O.3   125  SER125     -0.2179
     38  N        -16.1360   18.5170  -34.9750 N.am  126  LEU126     -0.1963
     39  CA       -17.0980   18.3300  -33.8970 C.3   126  LEU126      0.1728
     40  C        -16.5850   17.3470  -32.8480 C.2   126  LEU126      0.2616
     41  O        -16.6210   16.1440  -33.0520 O.2   126  LEU126     -0.2715
     42  CB       -18.4530   17.8900  -34.4590 C.3   126  LEU126      0.0311
     43  CG       -19.6150   17.4970  -33.5150 C.3   126  LEU126      0.0022
     44  CD1      -20.2900   18.7200  -32.9050 C.3   126  LEU126      0.0001
     45  CD2      -20.6220   16.6270  -34.2780 C.3   126  LEU126      0.0001
     46  N        -16.1160   17.8980  -31.7290 N.am  127  VAL127     -0.1977
     47  CA       -15.6900   17.1700  -30.5450 C.3   127  VAL127      0.1596
     48  C        -16.8830   16.9700  -29.6140 C.2   127  VAL127      0.2287
     49  O        -17.7080   17.8810  -29.4050 O.2   127  VAL127     -0.2864
     50  CB       -14.6350   17.9820  -29.7690 C.3   127  VAL127      0.0276
     51  CG1      -14.0490   17.1570  -28.6420 C.3   127  VAL127      0.0022
     52  CG2      -13.5080   18.5040  -30.7050 C.3   127  VAL127      0.0022
     53  N        -21.6010   17.9180  -27.0330 N.3   133  VAL133     -0.1231
     54  CA       -20.7170   18.8370  -27.7300 C.3   133  VAL133      0.1692
     55  C        -19.8710   19.5710  -26.7130 C.2   133  VAL133      0.2592
     56  O        -20.3760   20.0400  -25.6830 O.2   133  VAL133     -0.2718
     57  CB       -21.4900   19.8400  -28.6150 C.3   133  VAL133      0.0266
     58  CG1      -20.5240   20.6280  -29.5210 C.3   133  VAL133      0.0020
     59  CG2      -22.5110   19.1180  -29.4640 C.3   133  VAL133      0.0020
     60  N        -18.5720   19.6490  -27.0000 N.am  134  ALA134     -0.1966
     61  CA       -17.5990   20.1710  -26.0540 C.3   134  ALA134      0.1728
     62  C        -17.4760   21.6910  -26.1620 C.2   134  ALA134      0.2616
     63  O        -16.3770   22.2250  -26.3610 O.2   134  ALA134     -0.2715
     64  CB       -16.2620   19.4840  -26.2470 C.3   134  ALA134      0.0334
     65  N        -18.6170   22.3730  -26.0180 N.am  135  PHE135     -0.1960
     66  CA       -18.7020   23.8370  -25.9420 C.3   135  PHE135      0.1771
     67  C        -18.0930   24.3080  -24.6390 C.2   135  PHE135      0.2619
     68  O        -18.3120   23.6930  -23.5900 O.2   135  PHE135     -0.2715
     69  CB       -20.1680   24.2940  -25.9050 C.3   135  PHE135      0.0574
     70  CG       -20.9110   24.1180  -27.1860 C.ar  135  PHE135     -0.0200
     71  CD1      -21.9930   23.2530  -27.2530 C.ar  135  PHE135     -0.0042
     72  CD2      -20.5710   24.8400  -28.3120 C.ar  135  PHE135     -0.0042
     73  CE1      -22.7060   23.0880  -28.4180 C.ar  135  PHE135     -0.0003
     74  CE2      -21.2860   24.6730  -29.4920 C.ar  135  PHE135     -0.0003
     75  CZ       -22.3500   23.7910  -29.5440 C.ar  135  PHE135     -0.0000
     76  N        -17.3980   25.4400  -24.6750 N.am  136  LYS136     -0.1977
     77  CA       -16.7810   25.9700  -23.4510 C.3   136  LYS136      0.1596
     78  C        -17.8380   26.3620  -22.4400 C.2   136  LYS136      0.2287
     79  O        -17.6080   26.2840  -21.2300 O.2   136  LYS136     -0.2864
     80  CB       -15.8540   27.1620  -23.7520 C.3   136  LYS136      0.0298
     81  CG       -14.6100   26.8010  -24.6090 C.3   136  LYS136      0.0038
     82  CD       -13.4130   26.2700  -23.7640 C.3   136  LYS136      0.0206
     83  CE       -12.4090   25.4930  -24.6280 C.3   136  LYS136      0.1093
     84  NZ       -12.8520   24.0870  -24.9400 N.3   136  LYS136     -0.1314
@<TRIPOS>BOND
     1    21    22    1
     2    22    25    1
     3    22    23    1
     4    25    26    1
     5    24    23    2
     6    23    32   am
     7    26    27   ar
     8    26    28   ar
     9    32    33    1
    10    27    29   ar
    11    28    30   ar
    12     1     2    1
    13    33    36    1
    14    33    34    1
    15    29    31   ar
    16    36    37    1
    17    30    31   ar
    18     2     3    1
    19     2     5    1
    20     4     3    2
    21    34    38   am
    22    34    35    2
    23    38    39    1
    24    13    14    1
    25     3     7   am
    26    42    39    1
    27    42    43    1
    28     5     6    1
    29    45    43    1
    30    39    40    1
    31    14    15    1
    32    14    17    1
    33     7     8    1
    34     9    10    2
    35     9     8    1
    36    43    44    1
    37    20    18    1
    38    15    16    2
    39    41    40    2
    40     8    11    1
    41    40    46   am
    42    12    11    1
    43    18    17    1
    44    18    19    1
    45    46    47    1
    46    52    50    1
    47    47    50    1
    48    47    48    1
    49    50    51    1
    50    48    49    2
    51    75    74   ar
    52    75    73   ar
    53    58    57    1
    54    74    72   ar
    55    59    57    1
    56    57    54    1
    57    73    71   ar
    58    72    70   ar
    59    54    53    1
    60    54    55    1
    61    71    70   ar
    62    70    69    1
    63    60    55   am
    64    60    61    1
    65    55    56    2
    66    63    62    2
    67    64    61    1
    68    62    61    1
    69    62    65   am
    70    65    66    1
    71    66    69    1
    72    66    67    1
    73    84    83    1
    74    76    67   am
    75    76    77    1
    76    67    68    2
    77    83    82    1
    78    81    82    1
    79    81    80    1
    80    80    77    1
    81    77    78    1
    82    78    79    2
