@<TRIPOS>MOLECULE
tmp/2cfhA00.pdb
 207 196 0 0 0
SMALL
GASTEIGER

@<TRIPOS>ATOM
      1  N         17.2690    2.0590   13.4810 N.3     5  PHE5       -0.1241
      2  CA        16.0960    2.0160   14.3260 C.3     5  PHE5        0.1605
      3  C         15.2220    3.2530   14.0570 C.2     5  PHE5        0.2264
      4  O         14.0260    3.1390   13.8690 O.2     5  PHE5       -0.2867
      5  CB        16.4500    1.8930   15.8080 C.3     5  PHE5        0.0534
      6  CG        15.2450    1.8320   16.6980 C.ar    5  PHE5       -0.0203
      7  CD1       14.5110    0.6570   16.8040 C.ar    5  PHE5       -0.0042
      8  CD2       14.8130    2.9570   17.4050 C.ar    5  PHE5       -0.0042
      9  CE1       13.3840    0.5940   17.6220 C.ar    5  PHE5       -0.0003
     10  CE2       13.6850    2.8990   18.2070 C.ar    5  PHE5       -0.0003
     11  CZ        12.9750    1.7220   18.3200 C.ar    5  PHE5       -0.0000
     12  N          7.1020   -4.7710   23.5130 N.3    37  ILE37      -0.1245
     13  CA         8.5580   -4.7210   23.3510 C.3    37  ILE37       0.1561
     14  C          9.2780   -4.6250   24.6860 C.2    37  ILE37       0.2260
     15  O         10.2630   -5.3350   24.8930 O.2    37  ILE37      -0.2867
     16  CB         8.9930   -3.5460   22.4380 C.3    37  ILE37       0.0252
     17  CG1        8.7880   -3.9430   20.9680 C.3    37  ILE37       0.0019
     18  CG2       10.4480   -3.1560   22.6830 C.3    37  ILE37       0.0019
     19  CD1        8.5880   -2.7570   19.9970 C.3    37  ILE37       0.0001
     20  N         12.3000   -6.6210   26.5000 N.3    41  LEU41      -0.1231
     21  CA        13.4890   -5.8290   26.6060 C.3    41  LEU41       0.1693
     22  C         14.0290   -5.8500   28.0330 C.2    41  LEU41       0.2591
     23  O         15.2380   -5.8120   28.2450 O.2    41  LEU41      -0.2718
     24  CB        13.1710   -4.3970   26.2040 C.3    41  LEU41       0.0284
     25  CG        14.3140   -3.3810   26.1920 C.3    41  LEU41       0.0019
     26  CD1       15.2930   -3.7430   25.1340 C.3    41  LEU41       0.0001
     27  CD2       13.7930   -1.9890   25.9510 C.3    41  LEU41       0.0001
     28  N         13.1270   -5.8730   29.0130 N.am   42  ILE42      -0.1980
     29  CA        13.5530   -5.9210   30.4170 C.3    42  ILE42       0.1595
     30  C         14.3780   -7.1800   30.6680 C.2    42  ILE42       0.2287
     31  O         15.3500   -7.1260   31.4080 O.2    42  ILE42      -0.2864
     32  CB        12.3530   -5.8260   31.3940 C.3    42  ILE42       0.0276
     33  CG1       12.8390   -5.6660   32.8390 C.3    42  ILE42       0.0022
     34  CG2       11.4320   -7.0430   31.2530 C.3    42  ILE42       0.0022
     35  CD1       13.5070   -4.3820   33.0960 C.3    42  ILE42       0.0001
     36  N         17.7990   -6.3890   29.0870 N.3    45  PHE45      -0.1227
     37  CA        18.4150   -5.3760   29.9420 C.3    45  PHE45       0.1736
     38  C         18.9780   -5.9270   31.2400 C.2    45  PHE45       0.2595
     39  O         20.0590   -5.5360   31.6380 O.2    45  PHE45      -0.2718
     40  CB        17.3850   -4.3140   30.3160 C.3    45  PHE45       0.0547
     41  CG        17.9110   -3.3240   31.2920 C.ar   45  PHE45      -0.0202
     42  CD1       18.9590   -2.4760   30.9290 C.ar   45  PHE45      -0.0042
     43  CD2       17.4170   -3.2670   32.5890 C.ar   45  PHE45      -0.0042
     44  CE1       19.4750   -1.5730   31.8210 C.ar   45  PHE45      -0.0003
     45  CE2       17.9310   -2.3600   33.4830 C.ar   45  PHE45      -0.0003
     46  CZ        18.9660   -1.5110   33.0940 C.ar   45  PHE45      -0.0000
     47  N         18.2230   -6.8090   31.9000 N.am   46  LEU46      -0.1980
     48  CA        18.6300   -7.4270   33.1770 C.3    46  LEU46       0.1596
     49  C         19.7790   -8.4240   33.0060 C.2    46  LEU46       0.2287
     50  O         20.6280   -8.5480   33.8780 O.2    46  LEU46      -0.2864
     51  CB        17.4240   -8.1230   33.8390 C.3    46  LEU46       0.0297
     52  CG        16.3060   -7.1900   34.3310 C.3    46  LEU46       0.0022
     53  CD1       15.0900   -8.0030   34.7250 C.3    46  LEU46       0.0001
     54  CD2       16.7430   -6.3470   35.4920 C.3    46  LEU46       0.0001
     55  N         22.0880   -5.5450   36.8810 N.3    51  VAL51      -0.1231
     56  CA        21.2660   -4.6730   37.7030 C.3    51  VAL51       0.1692
     57  C         20.3550   -5.5400   38.5570 C.2    51  VAL51       0.2593
     58  O         19.6120   -6.3860   38.0370 O.2    51  VAL51      -0.2718
     59  CB        20.4340   -3.6700   36.8190 C.3    51  VAL51       0.0266
     60  CG1       19.1020   -3.2850   37.4700 C.3    51  VAL51       0.0020
     61  CG2       21.2570   -2.4120   36.5180 C.3    51  VAL51       0.0020
     62  N         20.4220   -5.3250   39.8680 N.am   52  GLY52      -0.1942
     63  CA        19.5560   -6.0210   40.7980 C.3    52  GLY52       0.2014
     64  C         18.2610   -5.2700   40.9920 C.2    52  GLY52       0.2639
     65  O         17.9050   -4.3970   40.2100 O.2    52  GLY52      -0.2714
     66  N         17.5450   -5.6170   42.0460 N.am   53  ARG53      -0.1963
     67  CA        16.3290   -4.9080   42.3920 C.3    53  ARG53       0.1729
     68  C         16.7160   -3.5430   42.9480 C.2    53  ARG53       0.2616
     69  O         17.7760   -3.4060   43.5950 O.2    53  ARG53      -0.2715
     70  CB        15.5300   -5.6800   43.4400 C.3    53  ARG53       0.0348
     71  CG        15.0870   -7.0480   42.9790 C.3    53  ARG53       0.0492
     72  CD        14.5020   -7.8430   44.1130 C.3    53  ARG53       0.2205
     73  NE        13.9850   -9.1130   43.6260 N.pl3  53  ARG53      -0.0865
     74  CZ        13.3700  -10.0140   44.3820 C.cat  53  ARG53       0.5346
     75  NH1       13.1890   -9.8020   45.6830 N.pl3  53  ARG53       0.1354
     76  NH2       12.9400  -11.1420   43.8320 N.pl3  53  ARG53       0.1354
     77  N         15.8690   -2.5450   42.6940 N.am   54  CYS54      -0.1968
     78  CA        15.6750   -1.1610   43.0390 C.3    54  CYS54       0.1712
     79  C         14.7430   -1.1790   44.2600 C.2    54  CYS54       0.2296
     80  O         13.5840   -1.5890   44.1570 O.2    54  CYS54      -0.2864
     81  CB        15.0160   -0.4460   41.8630 C.3    54  CYS54       0.0983
     82  SG        15.9950   -0.5150   40.3030 S.3    54  CYS54      -0.0798
     83  N         14.9370    3.1900   40.9270 N.3    60  THR60      -0.1218
     84  CA        14.3860    2.8280   39.6100 C.3    60  THR60       0.1862
     85  C         14.6270    3.9210   38.5570 C.2    60  THR60       0.2287
     86  O         15.0160    3.6310   37.4350 O.2    60  THR60      -0.2866
     87  CB        12.8780    2.5420   39.7130 C.3    60  THR60       0.1770
     88  OG1       12.6570    1.4250   40.5740 O.3    60  THR60      -0.2211
     89  CG2       12.2920    2.2490   38.3650 C.3    60  THR60       0.0375
     90  N         18.4640    3.9030   37.4470 N.3    63  VAL63      -0.1231
     91  CA        18.6890    2.7990   36.5020 C.3    63  VAL63       0.1692
     92  C         18.1460    3.1360   35.1110 C.2    63  VAL63       0.2591
     93  O         18.8640    3.0780   34.1230 O.2    63  VAL63      -0.2718
     94  CB        18.0980    1.4800   37.0510 C.3    63  VAL63       0.0266
     95  CG1       18.2240    0.3250   36.0300 C.3    63  VAL63       0.0020
     96  CG2       18.8250    1.1190   38.3810 C.3    63  VAL63       0.0020
     97  N         16.8820    3.5340   35.0530 N.am   64  ILE64      -0.1980
     98  CA        16.2360    3.8900   33.7800 C.3    64  ILE64       0.1595
     99  C         17.0020    4.9750   33.0330 C.2    64  ILE64       0.2287
    100  O         17.2920    4.8230   31.8640 O.2    64  ILE64      -0.2864
    101  CB        14.8060    4.3980   33.9970 C.3    64  ILE64       0.0276
    102  CG1       13.9160    3.2560   34.4910 C.3    64  ILE64       0.0022
    103  CG2       14.2170    5.0420   32.6570 C.3    64  ILE64       0.0022
    104  CD1       12.6270    3.7390   35.0770 C.3    64  ILE64       0.0001
    105  N         19.7660    2.2920   31.5650 N.3    68  ALA68      -0.1231
    106  CA        18.8940    1.6880   30.5410 C.3    68  ALA68       0.1694
    107  C         18.8260    2.5030   29.2570 C.2    68  ALA68       0.2592
    108  O         19.0850    1.9830   28.1710 O.2    68  ALA68      -0.2718
    109  CB        17.4980    1.4440   31.0970 C.3    68  ALA68       0.0304
    110  N         18.4650    3.7760   29.3820 N.am   69  PHE69      -0.1976
    111  CA        18.5610    4.7110   28.2620 C.3    69  PHE69       0.1639
    112  C         19.9340    4.7140   27.5860 C.2    69  PHE69       0.2290
    113  O         20.0490    4.7610   26.3460 O.2    69  PHE69      -0.2864
    114  CB        18.1510    6.1250   28.6930 C.3    69  PHE69       0.0560
    115  CG        16.6930    6.4380   28.4190 C.ar   69  PHE69      -0.0200
    116  CD1       15.7070    6.0390   29.3010 C.ar   69  PHE69      -0.0042
    117  CD2       16.3300    7.1480   27.3200 C.ar   69  PHE69      -0.0042
    118  CE1       14.3770    6.3270   29.0830 C.ar   69  PHE69      -0.0003
    119  CE2       14.9470    7.4200   27.0650 C.ar   69  PHE69      -0.0003
    120  CZ        13.9890    7.0090   27.9590 C.ar   69  PHE69      -0.0000
    121  N         20.4110    1.3860   25.4510 N.3    72  TYR72      -0.1227
    122  CA        19.5640    1.2030   24.2580 C.3    72  TYR72       0.1736
    123  C         19.5650    2.3530   23.2940 C.2    72  TYR72       0.2595
    124  O         19.5970    2.1310   22.1040 O.2    72  TYR72      -0.2718
    125  CB        18.1300    0.8380   24.6570 C.3    72  TYR72       0.0548
    126  CG        18.0930   -0.5210   25.2820 C.ar   72  TYR72      -0.0200
    127  CD1       18.4010   -1.6590   24.5370 C.ar   72  TYR72      -0.0009
    128  CD2       17.8270   -0.6680   26.6360 C.ar   72  TYR72      -0.0009
    129  CE1       18.4190   -2.9060   25.1260 C.ar   72  TYR72       0.0417
    130  CE2       17.8190   -1.9210   27.2260 C.ar   72  TYR72       0.0417
    131  CZ        18.1170   -3.0270   26.4630 C.ar   72  TYR72       0.1957
    132  OH        18.0980   -4.2510   27.0540 O.3    72  TYR72      -0.2866
    133  N         19.5240    3.5770   23.7940 N.am   73  LEU73      -0.1980
    134  CA        19.5220    4.7650   22.9260 C.3    73  LEU73       0.1596
    135  C         20.8320    5.5750   22.9680 C.2    73  LEU73       0.2287
    136  O         20.9800    6.5130   22.2030 O.2    73  LEU73      -0.2864
    137  CB        18.3650    5.6850   23.3080 C.3    73  LEU73       0.0297
    138  CG        17.0040    5.1130   23.0270 C.3    73  LEU73       0.0022
    139  CD1       15.9610    5.9020   23.7840 C.3    73  LEU73       0.0001
    140  CD2       16.7410    5.1180   21.5140 C.3    73  LEU73       0.0001
    141  N         13.3520    9.1360   19.5470 N.3    98  LEU98      -0.1245
    142  CA        13.1120    8.1570   18.5080 C.3    98  LEU98       0.1561
    143  C         12.9360    8.8100   17.1610 C.2    98  LEU98       0.2260
    144  O         12.8790    8.1210   16.1620 O.2    98  LEU98      -0.2867
    145  CB        11.8790    7.2930   18.7910 C.3    98  LEU98       0.0270
    146  CG        11.7070    6.6410   20.1620 C.3    98  LEU98       0.0019
    147  CD1       10.5260    5.6900   20.0880 C.3    98  LEU98       0.0001
    148  CD2       12.9750    5.9160   20.5960 C.3    98  LEU98       0.0001
    149  N          5.7880    4.8780   21.6190 N.3   116  LEU116     -0.1231
    150  CA         6.3780    3.5990   21.8210 C.3   116  LEU116      0.1693
    151  C          7.2770    3.5970   23.0740 C.2   116  LEU116      0.2591
    152  O          7.2910    2.6060   23.8020 O.2   116  LEU116     -0.2718
    153  CB         7.1540    3.1940   20.5870 C.3   116  LEU116      0.0284
    154  CG         7.5930    1.7300   20.6130 C.3   116  LEU116      0.0019
    155  CD1        6.8500    0.8560   19.5940 C.3   116  LEU116      0.0001
    156  CD2        9.0870    1.6310   20.4200 C.3   116  LEU116      0.0001
    157  N          8.0110    4.6860   23.3480 N.am  117  LEU117     -0.1980
    158  CA         8.9630    4.6670   24.4830 C.3   117  LEU117      0.1596
    159  C          8.1560    4.5120   25.7760 C.2   117  LEU117      0.2287
    160  O          8.6180    3.9170   26.7200 O.2   117  LEU117     -0.2864
    161  CB         9.8140    5.9320   24.5380 C.3   117  LEU117      0.0297
    162  CG        11.3050    5.7850   24.9640 C.3   117  LEU117      0.0022
    163  CD1       11.8800    7.1670   25.2990 C.3   117  LEU117      0.0001
    164  CD2       11.5620    4.8190   26.1250 C.3   117  LEU117      0.0001
    165  N          7.1200    0.9570   26.1150 N.3   120  VAL120     -0.1231
    166  CA         8.3150    0.2450   26.4650 C.3   120  VAL120      0.1692
    167  C          8.5740    0.3380   27.9570 C.2   120  VAL120      0.2591
    168  O          8.8270   -0.6880   28.6130 O.2   120  VAL120     -0.2718
    169  CB         9.5020    0.6890   25.6370 C.3   120  VAL120      0.0266
    170  CG1       10.7940    0.0330   26.1540 C.3   120  VAL120      0.0020
    171  CG2        9.2460    0.2910   24.1620 C.3   120  VAL120      0.0020
    172  N          8.4100    1.5450   28.4980 N.am  121  LEU121     -0.1980
    173  CA         8.7900    1.8180   29.8820 C.3   121  LEU121      0.1596
    174  C          7.8340    1.1060   30.8190 C.2   121  LEU121      0.2287
    175  O          8.2480    0.4960   31.7950 O.2   121  LEU121     -0.2864
    176  CB         8.8160    3.3300   30.1630 C.3   121  LEU121      0.0297
    177  CG        10.0030    4.0820   29.5870 C.3   121  LEU121      0.0022
    178  CD1        9.7030    5.5570   29.4450 C.3   121  LEU121      0.0001
    179  CD2       11.2180    3.8450   30.4780 C.3   121  LEU121      0.0001
    180  N          8.2460   -2.8180   30.6420 N.3   124  ALA124     -0.1231
    181  CA         9.4790   -3.2560   31.2580 C.3   124  ALA124      0.1694
    182  C          9.3340   -3.2580   32.7790 C.2   124  ALA124      0.2591
    183  O          9.7090   -4.2060   33.4500 O.2   124  ALA124     -0.2718
    184  CB        10.5970   -2.3500   30.8440 C.3   124  ALA124      0.0304
    185  N          8.7190   -2.2130   33.3030 N.am  125  LEU125     -0.1980
    186  CA         8.5520   -2.0590   34.7300 C.3   125  LEU125      0.1596
    187  C          7.4810   -2.9600   35.2990 C.2   125  LEU125      0.2287
    188  O          7.5710   -3.3520   36.4750 O.2   125  LEU125     -0.2864
    189  CB         8.2650   -0.6070   35.0750 C.3   125  LEU125      0.0297
    190  CG         9.4490    0.3100   34.7490 C.3   125  LEU125      0.0022
    191  CD1        9.0630    1.7230   35.1290 C.3   125  LEU125      0.0001
    192  CD2       10.7080   -0.1140   35.4700 C.3   125  LEU125      0.0001
    193  N          9.1620   -6.0710   36.4490 N.3   128  VAL128     -0.1245
    194  CA         9.8070   -5.9810   37.7660 C.3   128  VAL128      0.1561
    195  C          8.8070   -5.5240   38.8510 C.2   128  VAL128      0.2260
    196  O          9.1870   -5.0620   39.9210 O.2   128  VAL128     -0.2867
    197  CB        11.1000   -5.1190   37.7280 C.3   128  VAL128      0.0252
    198  CG1       12.1720   -5.8430   36.8910 C.3   128  VAL128      0.0019
    199  CG2       10.8380   -3.7460   37.1610 C.3   128  VAL128      0.0019
    200  N          6.2160   -3.2340   39.0120 N.3   130  MET130     -0.1245
    201  CA         5.8660   -1.8450   39.2610 C.3   130  MET130      0.1570
    202  C          4.8460   -1.4190   38.2420 C.2   130  MET130      0.2261
    203  O          5.1120   -1.4450   37.0610 O.2   130  MET130     -0.2867
    204  CB         7.0970   -0.9580   39.1570 C.3   130  MET130      0.0387
    205  CG         8.3020   -1.5530   39.8560 C.3   130  MET130      0.0595
    206  SD         9.6330   -0.3750   40.0080 S.3   130  MET130     -0.1393
    207  CE         9.0620    0.6090   41.3920 C.3   130  MET130      0.0692
@<TRIPOS>BOND
     1     1     2    1
     2     4     3    2
     3     3     2    1
     4     2     5    1
     5     5     6    1
     6   144   143    2
     7     6     7   ar
     8     6     8   ar
     9     7     9   ar
    10   143   142    1
    11     8    10   ar
    12     9    11   ar
    13    10    11   ar
    14   142   145    1
    15   142   141    1
    16   145   146    1
    17   155   154    1
    18    19    17    1
    19   147   146    1
    20   146   148    1
    21   156   154    1
    22   153   154    1
    23   153   150    1
    24    17    16    1
    25   140   138    1
    26   149   150    1
    27   150   151    1
    28   124   123    2
    29   136   135    2
    30    16    18    1
    31    16    13    1
    32   134   135    1
    33   134   137    1
    34   134   133    1
    35   138   137    1
    36   138   139    1
    37   151   157   am
    38   151   152    2
    39   123   133   am
    40   123   122    1
    41   157   158    1
    42    13    12    1
    43    13    14    1
    44   171   169    1
    45   122   125    1
    46   122   121    1
    47   158   161    1
    48   158   159    1
    49   127   129   ar
    50   127   126   ar
    51   161   162    1
    52   125   126    1
    53    14    15    2
    54   162   163    1
    55   162   164    1
    56   129   131   ar
    57    26    25    1
    58   126   128   ar
    59   169   170    1
    60   169   166    1
    61   159   160    2
    62    27    25    1
    63   165   166    1
    64    25    24    1
    65    24    21    1
    66   113   112    2
    67   131   132    1
    68   131   130   ar
    69   166   167    1
    70    20    21    1
    71    21    22    1
    72   128   130   ar
    73   119   117   ar
    74   119   120   ar
    75   117   115   ar
    76   112   111    1
    77   167   172   am
    78   167   168    2
    79   120   118   ar
    80    22    23    2
    81    22    28   am
    82   108   107    2
    83   111   114    1
    84   111   110    1
    85   115   114    1
    86   115   116   ar
    87   172   173    1
    88    28    29    1
    89   118   116   ar
    90    36    37    1
    91   107   110   am
    92   107   106    1
    93   178   177    1
    94   177   176    1
    95   177   179    1
    96   173   176    1
    97   173   174    1
    98    37    40    1
    99    37    38    1
   100    40    41    1
   101    29    30    1
   102    29    32    1
   103   106   109    1
   104   106   105    1
   105   180   181    1
   106    30    31    2
   107   174   175    2
   108   184   181    1
   109    42    41   ar
   110    42    44   ar
   111    38    39    2
   112    38    47   am
   113    34    32    1
   114   181   182    1
   115    41    43   ar
   116    32    33    1
   117    44    46   ar
   118   100    99    2
   119    47    48    1
   120    43    45   ar
   121   103   101    1
   122   182   185   am
   123   182   183    2
   124    33    35    1
   125    49    48    1
   126    49    50    2
   127    99    98    1
   128    46    45   ar
   129    48    51    1
   130   185   186    1
   131    98   101    1
   132    98    97    1
   133    51    52    1
   134   101   102    1
   135    93    92    2
   136    52    53    1
   137    52    54    1
   138   102   104    1
   139   186   189    1
   140   186   187    1
   141   190   189    1
   142   190   191    1
   143   190   192    1
   144    97    92   am
   145    92    91    1
   146   187   188    2
   147    95    94    1
   148   193   194    1
   149    91    94    1
   150    91    90    1
   151    61    59    1
   152    59    60    1
   153    59    56    1
   154    55    56    1
   155   198   197    1
   156    94    96    1
   157   203   202    2
   158   199   197    1
   159    86    85    2
   160    56    57    1
   161   197   194    1
   162   194   195    1
   163    58    57    2
   164   202   201    1
   165    89    87    1
   166    85    84    1
   167    57    62   am
   168   195   196    2
   169   200   201    1
   170   204   201    1
   171   204   205    1
   172    84    87    1
   173    84    83    1
   174    87    88    1
   175   205   206    1
   176    62    63    1
   177   206   207    1
   178    65    64    2
   179    82    81    1
   180    63    64    1
   181    64    66   am
   182    81    78    1
   183    66    67    1
   184    67    68    1
   185    67    70    1
   186    77    68   am
   187    77    78    1
   188    68    69    2
   189    71    70    1
   190    71    72    1
   191    78    79    1
   192    73    72    1
   193    73    74    2
   194    76    74    1
   195    80    79    2
   196    74    75    1
