@<TRIPOS>MOLECULE
tmp/2cfiA00.pdb
 138 134 0 0 0
SMALL
GASTEIGER

@<TRIPOS>ATOM
      1  N         31.1190   10.2040   26.7260 N.3    86  LEU86      -0.1245
      2  CA        30.3970    9.8850   25.4890 C.3    86  LEU86       0.1561
      3  C         30.2450    8.3840   25.3230 C.2    86  LEU86       0.2260
      4  O         31.0810    7.7280   24.7070 O.2    86  LEU86      -0.2867
      5  CB        31.0960   10.5000   24.2570 C.3    86  LEU86       0.0270
      6  CG        30.9390   12.0130   24.1170 C.3    86  LEU86       0.0019
      7  CD1       31.7690   12.7710   25.1530 C.3    86  LEU86       0.0001
      8  CD2       31.2760   12.4300   22.6560 C.3    86  LEU86       0.0001
      9  N         28.0130    8.4080   21.3260 N.3    89  CYS89      -0.1221
     10  CA        27.8010    9.4270   20.3190 C.3    89  CYS89       0.1808
     11  C         28.0280    9.0550   18.8440 C.2    89  CYS89       0.2602
     12  O         28.3950    7.9210   18.5130 O.2    89  CYS89      -0.2717
     13  CB        27.3880   10.8330   20.7570 C.3    89  CYS89       0.0970
     14  SG        28.5840   12.1330   20.5160 S.3    89  CYS89      -0.0800
     15  N         27.7930   10.0310   17.9750 N.am   90  SER90      -0.1938
     16  CA        27.6430    9.7740   16.5590 C.3    90  SER90       0.2055
     17  C         28.4260   10.8090   15.7690 C.2    90  SER90       0.2643
     18  O         29.5100   10.5220   15.2520 O.2    90  SER90      -0.2714
     19  CB        26.1510    9.8230   16.2000 C.3    90  SER90       0.2130
     20  OG        25.4610    8.6990   16.7260 O.3    90  SER90      -0.2179
     21  N         27.8950   12.0230   15.7160 N.am   91  GLN91      -0.1963
     22  CA        28.4990   13.0760   14.9200 C.3    91  GLN91       0.1733
     23  C         29.6290   13.7470   15.6900 C.2    91  GLN91       0.2616
     24  O         29.7140   13.6490   16.9200 O.2    91  GLN91      -0.2715
     25  CB        27.4620   14.1300   14.5540 C.3    91  GLN91       0.0408
     26  CG        26.1270   13.5850   14.0930 C.3    91  GLN91       0.0908
     27  CD        24.9710   14.3220   14.7380 C.2    91  GLN91       0.2608
     28  OE1       24.9400   15.5660   14.7730 O.2    91  GLN91      -0.2717
     29  NE2       24.0080   13.5620   15.2580 N.am   91  GLN91      -0.0878
     30  N         30.4870   14.4480   14.9590 N.am   92  PHE92      -0.1960
     31  CA        31.5360   15.2340   15.5820 C.3    92  PHE92       0.1771
     32  C         30.8610   16.1790   16.5690 C.2    92  PHE92       0.2619
     33  O         29.8420   16.7950   16.2550 O.2    92  PHE92      -0.2715
     34  CB        32.3350   16.0210   14.5410 C.3    92  PHE92       0.0574
     35  CG        33.7110   16.4350   15.0060 C.ar   92  PHE92      -0.0200
     36  CD1       34.8090   15.6150   14.7810 C.ar   92  PHE92      -0.0042
     37  CD2       33.9120   17.6490   15.6520 C.ar   92  PHE92      -0.0042
     38  CE1       36.0830   15.9980   15.1930 C.ar   92  PHE92      -0.0003
     39  CE2       35.1780   18.0410   16.0600 C.ar   92  PHE92      -0.0003
     40  CZ        36.2650   17.2110   15.8300 C.ar   92  PHE92      -0.0000
     41  N         31.4010   16.2490   17.7780 N.am   93  ILE93      -0.1977
     42  CA        30.9000   17.1550   18.7720 C.3    93  ILE93       0.1596
     43  C         31.8880   18.2980   18.7370 C.2    93  ILE93       0.2287
     44  O         33.0930   18.0790   18.8560 O.2    93  ILE93      -0.2864
     45  CB        30.8460   16.5170   20.1800 C.3    93  ILE93       0.0276
     46  CG1       30.0500   15.2110   20.1650 C.3    93  ILE93       0.0022
     47  CG2       30.2330   17.4840   21.1820 C.3    93  ILE93       0.0022
     48  CD1       28.5970   15.3490   19.7630 C.3    93  ILE93       0.0001
     49  N         34.4610   21.2450   19.2380 N.3    95  MET95      -0.1245
     50  CA        35.5050   21.3450   20.2380 C.3    95  MET95       0.1570
     51  C         35.1970   22.3600   21.3240 C.2    95  MET95       0.2261
     52  O         35.8290   22.3210   22.3770 O.2    95  MET95      -0.2867
     53  CB        36.8500   21.6910   19.5830 C.3    95  MET95       0.0387
     54  CG        37.3580   20.6370   18.6030 C.3    95  MET95       0.0595
     55  SD        37.5930   19.0140   19.3460 S.3    95  MET95      -0.1393
     56  CE        38.9040   19.3340   20.5280 C.3    95  MET95       0.0692
     57  N         33.4410   19.6450   23.4450 N.3    98  ILE98      -0.1245
     58  CA        34.4690   18.6200   23.7520 C.3    98  ILE98       0.1561
     59  C         35.6130   19.1580   24.6130 C.2    98  ILE98       0.2260
     60  O         36.0750   18.4910   25.5390 O.2    98  ILE98      -0.2867
     61  CB        35.0250   17.9690   22.4530 C.3    98  ILE98       0.0252
     62  CG1       34.0000   17.0260   21.8400 C.3    98  ILE98       0.0019
     63  CG2       36.3520   17.2510   22.7040 C.3    98  ILE98       0.0019
     64  CD1       33.7680   15.7080   22.5970 C.3    98  ILE98       0.0001
     65  N         35.5260    9.0250   25.3160 N.3   107  ILE107     -0.1231
     66  CA        34.6410    8.4070   24.3430 C.3   107  ILE107      0.1692
     67  C         34.8190    6.9090   24.2840 C.2   107  ILE107      0.2592
     68  O         35.9570    6.4220   24.2590 O.2   107  ILE107     -0.2718
     69  CB        34.9150    8.9380   22.9240 C.3   107  ILE107      0.0266
     70  CG1       34.8820   10.4790   22.9310 C.3   107  ILE107      0.0019
     71  CG2       33.9220    8.2990   21.9370 C.3   107  ILE107      0.0020
     72  CD1       35.1930   11.1570   21.5670 C.3   107  ILE107      0.0001
     73  N         33.6940    6.1870   24.2810 N.am  108  TYR108     -0.1962
     74  CA        33.7090    4.7500   24.0750 C.3   108  TYR108      0.1771
     75  C         33.6790    4.4730   22.5730 C.2   108  TYR108      0.2619
     76  O         32.8680    5.0700   21.8460 O.2   108  TYR108     -0.2715
     77  CB        32.4660    4.1430   24.7110 C.3   108  TYR108      0.0574
     78  CG        32.2380    2.7130   24.3290 C.ar  108  TYR108     -0.0198
     79  CD1       32.8850    1.6600   25.0040 C.ar  108  TYR108     -0.0009
     80  CD2       31.3450    2.3870   23.3080 C.ar  108  TYR108     -0.0009
     81  CE1       32.6310    0.3160   24.6670 C.ar  108  TYR108      0.0417
     82  CE2       31.0780    1.0470   22.9680 C.ar  108  TYR108      0.0417
     83  CZ        31.7340    0.0150   23.6450 C.ar  108  TYR108      0.1957
     84  OH        31.4680   -1.3000   23.2800 O.3   108  TYR108     -0.2866
     85  N         34.5220    3.5650   22.1050 N.am  109  HIS109     -0.1973
     86  CA        34.5560    3.2150   20.6990 C.3   109  HIS109      0.1656
     87  C         34.7080    1.7000   20.5840 C.2   109  HIS109      0.2291
     88  O         35.6710    1.1270   21.1260 O.2   109  HIS109     -0.2864
     89  CB        35.6970    3.9120   19.9930 C.3   109  HIS109      0.0771
     90  CG        35.7270    3.6520   18.5210 C.ar  109  HIS109      0.0820
     91  ND1       35.0200    4.4300   17.6240 N.ar  109  HIS109     -0.2267
     92  CD2       36.3370    2.6920   17.7970 C.ar  109  HIS109      0.1154
     93  CE1       35.2250    3.9620   16.4010 C.ar  109  HIS109      0.1986
     94  NE2       36.0130    2.9040   16.4790 N.ar  109  HIS109     -0.2212
     95  N         38.8220    6.4560   24.8910 N.3   138  PHE138     -0.1241
     96  CA        39.8770    7.3520   24.4580 C.3   138  PHE138      0.1605
     97  C         39.5610    8.8000   24.7220 C.2   138  PHE138      0.2264
     98  O         38.4050    9.1690   24.9170 O.2   138  PHE138     -0.2867
     99  CB        40.2590    7.1160   22.9800 C.3   138  PHE138      0.0534
    100  CG        39.2540    7.6620   21.9860 C.ar  138  PHE138     -0.0203
    101  CD1       38.1600    6.8950   21.5900 C.ar  138  PHE138     -0.0042
    102  CD2       39.4110    8.9480   21.4700 C.ar  138  PHE138     -0.0042
    103  CE1       37.2260    7.3980   20.6520 C.ar  138  PHE138     -0.0003
    104  CE2       38.4850    9.4690   20.5410 C.ar  138  PHE138     -0.0003
    105  CZ        37.3860    8.6860   20.1470 C.ar  138  PHE138     -0.0000
    106  N         39.1140   12.4810   23.7030 N.3   140  ALA140     -0.1231
    107  CA        38.7490   13.1760   22.4550 C.3   140  ALA140      0.1694
    108  C         39.7880   14.2350   22.1380 C.2   140  ALA140      0.2592
    109  O         40.2360   14.9660   23.0210 O.2   140  ALA140     -0.2718
    110  CB        37.3820   13.8220   22.5750 C.3   140  ALA140      0.0304
    111  N         40.1740   14.3030   20.8760 N.am  141  ASP141     -0.1974
    112  CA        40.9740   15.4210   20.3670 C.3   141  ASP141      0.1709
    113  C         40.2650   15.9860   19.1370 C.2   141  ASP141      0.2293
    114  O         39.1060   15.6400   18.8660 O.2   141  ASP141     -0.2864
    115  CB        42.4300   15.0060   20.1040 C.3   141  ASP141      0.1436
    116  CG        42.5940   14.0450   18.9230 C.2   141  ASP141      0.3671
    117  OD1       43.7220   13.5320   18.7620 O.co2 141  ASP141     -0.2456
    118  OD2       41.6280   13.7930   18.1540 O.co2 141  ASP141     -0.2456
    119  N         40.6330   15.4050   16.0460 N.3   143  GLY143     -0.1210
    120  CA        40.4620   14.4580   14.9530 C.3   143  GLY143      0.1956
    121  C         39.3060   13.5030   15.1860 C.2   143  GLY143      0.2612
    122  O         38.6900   13.4960   16.2530 O.2   143  GLY143     -0.2717
    123  N         38.9950   12.7000   14.1710 N.am  144  LEU144     -0.1965
    124  CA        37.9430   11.7180   14.2770 C.3   144  LEU144      0.1728
    125  C         38.5600   10.3930   14.7840 C.2   144  LEU144      0.2616
    126  O         39.2680    9.6780   14.0500 O.2   144  LEU144     -0.2715
    127  CB        37.2120   11.5470   12.9340 C.3   144  LEU144      0.0311
    128  CG        35.8910   10.7520   12.9190 C.3   144  LEU144      0.0022
    129  CD1       36.1510    9.2400   13.0170 C.3   144  LEU144      0.0001
    130  CD2       34.9130   11.1840   14.0260 C.3   144  LEU144      0.0001
    131  N         38.3240   10.1070   16.0560 N.am  145  ASP145     -0.1971
    132  CA        38.7190    8.8200   16.6590 C.3   145  ASP145      0.1709
    133  C         40.2320    8.6070   16.6420 C.2   145  ASP145      0.2293
    134  O         40.7000    7.4690   16.6280 O.2   145  ASP145     -0.2864
    135  CB        37.9820    7.6700   15.9470 C.3   145  ASP145      0.1436
    136  CG        36.4850    7.6480   16.2400 C.2   145  ASP145      0.3671
    137  OD1       36.0420    8.3370   17.1860 O.co2 145  ASP145     -0.2456
    138  OD2       35.7420    6.8840   15.5770 O.co2 145  ASP145     -0.2456
@<TRIPOS>BOND
     1   128   127    1
     2   128   129    1
     3   128   130    1
     4   127   124    1
     5   126   125    2
     6    26    25    1
     7    26    27    1
     8   123   124    1
     9   123   121   am
    10   124   125    1
    11    34    35    1
    12    34    31    1
    13    25    22    1
    14    27    28    2
    15    27    29   am
    16    36    35   ar
    17    36    38   ar
    18   125   131   am
    19    22    23    1
    20    22    21    1
    21   120   121    1
    22   120   119    1
    23    30    31    1
    24    30    23   am
    25    35    37   ar
    26   121   122    2
    27    38    40   ar
    28    18    17    2
    29   138   136   ar
    30    31    32    1
    31    37    39   ar
    32    23    24    2
    33    21    17   am
    34    17    16    1
    35    40    39   ar
    36   135   136    1
    37   135   132    1
    38   131   132    1
    39    19    16    1
    40    19    20    1
    41   136   137   ar
    42    33    32    2
    43    93    94   ar
    44    93    91   ar
    45    94    92   ar
    46    16    15    1
    47    32    41   am
    48   134   133    2
    49   133   132    1
    50    91    90   ar
    51    41    42    1
    52    92    90   ar
    53    15    11   am
    54   118   116   ar
    55    12    11    2
    56    90    89    1
    57    54    55    1
    58    54    53    1
    59    43    42    1
    60    43    44    2
    61   117   116   ar
    62    42    45    1
    63    11    10    1
    64   114   113    2
    65   116   115    1
    66   113   112    1
    67    49    50    1
    68    55    56    1
    69    53    50    1
    70    48    46    1
    71    89    86    1
    72   115   112    1
    73   105   104   ar
    74   105   103   ar
    75    46    45    1
    76    45    47    1
    77    50    51    1
    78    10    13    1
    79    10     9    1
    80   112   111    1
    81    14    13    1
    82   104   102   ar
    83    87    86    1
    84    87    88    2
    85   103   101   ar
    86    86    85    1
    87   111   108   am
    88    51    52    2
    89   102   100   ar
    90    72    70    1
    91   101   100   ar
    92    62    61    1
    93    62    64    1
    94    76    75    2
    95    71    69    1
    96   100    99    1
    97    85    75   am
    98   108   107    1
    99   108   109    2
   100    61    63    1
   101    61    58    1
   102   107   110    1
   103   107   106    1
   104    75    74    1
   105     8     6    1
   106    69    70    1
   107    69    66    1
   108    82    80   ar
   109    82    83   ar
   110    99    96    1
   111    84    83    1
   112    80    78   ar
   113    57    58    1
   114    83    81   ar
   115    58    59    1
   116    74    73    1
   117    74    77    1
   118     6     5    1
   119     6     7    1
   120     5     2    1
   121    68    67    2
   122    73    67   am
   123    67    66    1
   124    78    77    1
   125    78    79   ar
   126    66    65    1
   127    96    97    1
   128    96    95    1
   129    59    60    2
   130    81    79   ar
   131     4     3    2
   132    97    98    2
   133     3     2    1
   134     2     1    1
