@<TRIPOS>MOLECULE
tmp/2cfkA00.pdb
 96 94 0 0 0
SMALL
GASTEIGER

@<TRIPOS>ATOM
      1  N         14.6210    5.2630   27.8870 N.3    94  GLU94      -0.1231
      2  CA        13.9510    6.2440   27.0390 C.3    94  GLU94       0.1699
      3  C         14.6110    6.3510   25.6650 C.2    94  GLU94       0.2592
      4  O         13.9230    6.3860   24.6330 O.2    94  GLU94      -0.2718
      5  CB        14.0080    7.6100   27.7170 C.3    94  GLU94       0.0402
      6  CG        12.7840    7.9780   28.5290 C.3    94  GLU94       0.1161
      7  CD        12.7820    9.4480   28.9470 C.2    94  GLU94       0.3649
      8  OE1       12.8090   10.3000   28.0410 O.co2  94  GLU94      -0.2457
      9  OE2       12.7490    9.7440   30.1670 O.co2  94  GLU94      -0.2457
     10  N         15.9420    6.3880   25.6540 N.am   95  GLU95      -0.1979
     11  CA        16.7220    6.6030   24.4260 C.3    95  GLU95       0.1602
     12  C         16.6640    5.4180   23.4520 C.2    95  GLU95       0.2287
     13  O         17.0440    5.5370   22.2920 O.2    95  GLU95      -0.2864
     14  CB        18.1830    6.9170   24.7600 C.3    95  GLU95       0.0415
     15  CG        19.0120    5.7180   25.2120 C.3    95  GLU95       0.1163
     16  CD        20.3010    6.1050   25.9350 C.2    95  GLU95       0.3649
     17  OE1       20.2280    6.7980   26.9740 O.co2  95  GLU95      -0.2457
     18  OE2       21.3900    5.6940   25.4750 O.co2  95  GLU95      -0.2457
     19  N         13.8570    3.9000   22.5670 N.3    97  PHE97      -0.1227
     20  CA        12.5550    3.8440   21.9110 C.3    97  PHE97       0.1736
     21  C         12.5530    4.1620   20.4280 C.2    97  PHE97       0.2595
     22  O         11.7300    3.6230   19.6910 O.2    97  PHE97      -0.2718
     23  CB        11.5710    4.7770   22.6010 C.3    97  PHE97       0.0547
     24  CG        11.1830    4.3230   23.9750 C.ar   97  PHE97      -0.0202
     25  CD1       11.1940    2.9800   24.3340 C.ar   97  PHE97      -0.0042
     26  CD2       10.8070    5.2420   24.9090 C.ar   97  PHE97      -0.0042
     27  CE1       10.8270    2.5920   25.6010 C.ar   97  PHE97      -0.0003
     28  CE2       10.4450    4.8470   26.1810 C.ar   97  PHE97      -0.0003
     29  CZ        10.4600    3.5230   26.5230 C.ar   97  PHE97      -0.0000
     30  N         13.4440    5.0540   20.0170 N.am   98  GLU98      -0.1979
     31  CA        13.5820    5.4270   18.6140 C.3    98  GLU98       0.1602
     32  C         14.4030    4.3920   17.8560 C.2    98  GLU98       0.2287
     33  O         14.2980    4.2750   16.6290 O.2    98  GLU98      -0.2864
     34  CB        14.2760    6.7950   18.4930 C.3    98  GLU98       0.0415
     35  CG        15.7180    6.8170   19.0080 C.3    98  GLU98       0.1163
     36  CD        16.2250    8.2210   19.3430 C.2    98  GLU98       0.3649
     37  OE1       15.7910    8.7880   20.3750 O.co2  98  GLU98      -0.2457
     38  OE2       17.0660    8.7510   18.5790 O.co2  98  GLU98      -0.2457
     39  N          8.4520    0.3730   20.1930 N.3   128  PRO128     -0.2102
     40  CA         9.5430   -0.3260   20.8780 C.3   128  PRO128      0.1504
     41  C          9.0180   -1.1090   22.0730 C.2   128  PRO128      0.2575
     42  O          8.8480   -0.5770   23.1620 O.2   128  PRO128     -0.2718
     43  CB        10.4330    0.8250   21.3400 C.3   128  PRO128      0.0282
     44  CG         9.4370    1.9100   21.6800 C.3   128  PRO128      0.0208
     45  CD         8.3060    1.7600   20.6910 C.3   128  PRO128      0.0893
     46  N          8.8120   -2.4020   21.8700 N.am  129  LEU129     -0.1980
     47  CA         8.0010   -3.1900   22.7710 C.3   129  LEU129      0.1596
     48  C          8.8490   -4.1820   23.5310 C.2   129  LEU129      0.2287
     49  O          9.7610   -4.7890   22.9530 O.2   129  LEU129     -0.2864
     50  CB         6.9450   -3.9260   21.9660 C.3   129  LEU129      0.0297
     51  CG         6.0510   -2.9630   21.1680 C.3   129  LEU129      0.0022
     52  CD1        5.1710   -3.7210   20.1660 C.3   129  LEU129      0.0001
     53  CD2        5.2430   -2.0950   22.1060 C.3   129  LEU129      0.0001
     54  N          9.0590   -0.4910   31.9980 N.3   294  TYR294     -0.1241
     55  CA         9.1120    0.8560   31.4060 C.3   294  TYR294      0.1605
     56  C          9.3340    1.9910   32.4180 C.2   294  TYR294      0.2264
     57  O          9.9110    3.0010   32.0570 O.2   294  TYR294     -0.2867
     58  CB         7.8520    1.1210   30.5920 C.3   294  TYR294      0.0534
     59  CG         7.7990    0.3400   29.2940 C.ar  294  TYR294     -0.0201
     60  CD1        7.1300   -0.8700   29.2150 C.ar  294  TYR294     -0.0009
     61  CD2        8.4490    0.8080   28.1500 C.ar  294  TYR294     -0.0009
     62  CE1        7.0900   -1.5950   28.0260 C.ar  294  TYR294      0.0417
     63  CE2        8.4030    0.1030   26.9650 C.ar  294  TYR294      0.0417
     64  CZ         7.7380   -1.1030   26.9110 C.ar  294  TYR294      0.1957
     65  OH         7.6980   -1.8060   25.7380 O.3   294  TYR294     -0.2866
     66  N          7.3310    8.6400   32.9440 N.3   299  TYR299     -0.1241
     67  CA         6.4390    9.1610   31.8880 C.3   299  TYR299      0.1605
     68  C          5.2230    9.9280   32.4110 C.2   299  TYR299      0.2264
     69  O          4.2650   10.1720   31.6820 O.2   299  TYR299     -0.2867
     70  CB         6.0490    8.0150   30.9520 C.3   299  TYR299      0.0534
     71  CG         7.2880    7.3700   30.3770 C.ar  299  TYR299     -0.0201
     72  CD1        8.1520    8.1060   29.5850 C.ar  299  TYR299     -0.0009
     73  CD2        7.6380    6.0530   30.6820 C.ar  299  TYR299     -0.0009
     74  CE1        9.3180    7.5630   29.0950 C.ar  299  TYR299      0.0417
     75  CE2        8.8060    5.4860   30.1720 C.ar  299  TYR299      0.0417
     76  CZ         9.6410    6.2490   29.3800 C.ar  299  TYR299      0.1957
     77  OH        10.8040    5.7320   28.8710 O.3   299  TYR299     -0.2866
     78  N          1.8170    8.1620   30.6130 N.3   370  THR370     -0.1203
     79  CA         1.5730    7.7110   29.2540 C.3   370  THR370      0.1994
     80  C          2.6270    6.7030   28.8750 C.2   370  THR370      0.2618
     81  O          3.8070    7.0110   28.9460 O.2   370  THR370     -0.2717
     82  CB         1.6930    8.8920   28.2940 C.3   370  THR370      0.1784
     83  OG1        0.6910    9.8760   28.5790 O.3   370  THR370     -0.2211
     84  CG2        1.4260    8.4440   26.8420 C.3   370  THR370      0.0376
     85  N          2.2070    5.5160   28.4640 N.am  371  ILE371     -0.1965
     86  CA         3.1150    4.4840   28.0110 C.3   371  ILE371      0.1727
     87  C          2.6720    4.0920   26.5970 C.2   371  ILE371      0.2616
     88  O          1.7510    3.3160   26.4530 O.2   371  ILE371     -0.2715
     89  CB         3.0580    3.2390   28.9360 C.3   371  ILE371      0.0290
     90  CG1        3.2120    3.6070   30.4220 C.3   371  ILE371      0.0022
     91  CG2        4.1140    2.2600   28.5030 C.3   371  ILE371      0.0023
     92  CD1        4.6200    3.9880   30.8000 C.3   371  ILE371      0.0001
     93  N          3.2840    4.6820   25.5790 N.am  372  GLY372     -0.1955
     94  CA         2.9100    4.4480   24.1920 C.3   372  GLY372      0.1869
     95  C          1.4880    4.8710   23.8610 C.2   372  GLY372      0.2309
     96  O          1.1590    6.0630   23.8750 O.2   372  GLY372     -0.2863
@<TRIPOS>BOND
     1    33    32    2
     2    32    31    1
     3    34    31    1
     4    34    35    1
     5    38    36   ar
     6    31    30    1
     7    35    36    1
     8    36    37   ar
     9    22    21    2
    10    30    21   am
    11    52    51    1
    12    39    45    1
    13    39    40    1
    14    21    20    1
    15    45    44    1
    16    40    43    1
    17    40    41    1
    18    51    50    1
    19    51    53    1
    20    43    44    1
    21    46    41   am
    22    46    47    1
    23    20    19    1
    24    20    23    1
    25    50    47    1
    26    41    42    2
    27    13    12    2
    28    23    24    1
    29    47    48    1
    30    49    48    2
    31    12    11    1
    32    95    96    2
    33    95    94    1
    34    24    25   ar
    35    24    26   ar
    36    94    93    1
    37    25    27   ar
    38    11    14    1
    39    11    10    1
    40     4     3    2
    41    14    15    1
    42    26    28   ar
    43    15    16    1
    44    18    16   ar
    45    93    87   am
    46    27    29   ar
    47    10     3   am
    48     3     2    1
    49    65    64    1
    50    16    17   ar
    51    28    29   ar
    52    88    87    2
    53    87    86    1
    54    84    82    1
    55    64    63   ar
    56    64    62   ar
    57    63    61   ar
    58     2     5    1
    59     2     1    1
    60     5     6    1
    61    86    85    1
    62    86    89    1
    63    62    60   ar
    64     8     7   ar
    65    61    59   ar
    66    82    83    1
    67    82    79    1
    68    85    80   am
    69    91    89    1
    70     6     7    1
    71    77    76    1
    72    80    81    2
    73    80    79    1
    74    89    90    1
    75     7     9   ar
    76    74    76   ar
    77    74    72   ar
    78    60    59   ar
    79    79    78    1
    80    59    58    1
    81    76    75   ar
    82    72    71   ar
    83    75    73   ar
    84    71    73   ar
    85    71    70    1
    86    90    92    1
    87    58    55    1
    88    70    67    1
    89    55    54    1
    90    55    56    1
    91    69    68    2
    92    67    68    1
    93    67    66    1
    94    57    56    2
