@<TRIPOS>MOLECULE
tmp/2cflA00.pdb
 168 165 0 0 0
SMALL
GASTEIGER

@<TRIPOS>ATOM
      1  N         14.6830    5.3430   27.8370 N.3    94  GLU94      -0.1245
      2  CA        13.9430    6.2790   26.9800 C.3    94  GLU94       0.1567
      3  C         14.6330    6.4400   25.6330 C.2    94  GLU94       0.2260
      4  O         13.9710    6.4710   24.5900 O.2    94  GLU94      -0.2867
      5  CB        13.7760    7.6440   27.6600 C.3    94  GLU94       0.0388
      6  CG        12.8240    8.5930   26.9260 C.3    94  GLU94       0.1160
      7  CD        13.5050    9.5560   25.9430 C.2    94  GLU94       0.3649
      8  OE1       14.7540    9.5630   25.8260 O.co2  94  GLU94      -0.2457
      9  OE2       12.7780   10.3240   25.2720 O.co2  94  GLU94      -0.2457
     10  N         13.9330    3.9290   22.5400 N.3    97  PHE97      -0.1241
     11  CA        12.5990    3.8230   21.9490 C.3    97  PHE97       0.1605
     12  C         12.5580    4.1660   20.4640 C.2    97  PHE97       0.2264
     13  O         11.7500    3.6050   19.7230 O.2    97  PHE97      -0.2867
     14  CB        11.5890    4.6910   22.7120 C.3    97  PHE97       0.0534
     15  CG        11.2090    4.1200   24.0580 C.ar   97  PHE97      -0.0203
     16  CD1       12.0790    4.1790   25.1150 C.ar   97  PHE97      -0.0042
     17  CD2        9.9930    3.5040   24.2560 C.ar   97  PHE97      -0.0042
     18  CE1       11.7460    3.6520   26.3460 C.ar   97  PHE97      -0.0003
     19  CE2        9.6680    2.9660   25.4930 C.ar   97  PHE97      -0.0003
     20  CZ        10.5450    3.0510   26.5290 C.ar   97  PHE97      -0.0000
     21  N          6.7190    0.7260   17.1230 N.3   127  ALA127     -0.1231
     22  CA         6.6080    0.7310   18.5750 C.3   127  ALA127      0.1679
     23  C          7.7150   -0.1480   19.1430 C.2   127  ALA127      0.2434
     24  O          7.9050   -1.2740   18.6840 O.2   127  ALA127     -0.2733
     25  CB         5.2570    0.2200   18.9950 C.3   127  ALA127      0.0304
     26  N          8.4610    0.3710   20.1020 N.am  128  PRO128     -0.2718
     27  CA         9.5400   -0.3690   20.7590 C.3   128  PRO128      0.1535
     28  C          9.0100   -1.1070   21.9820 C.2   128  PRO128      0.2598
     29  O          8.7730   -0.5220   23.0320 O.2   128  PRO128     -0.2715
     30  CB        10.4820    0.7420   21.1920 C.3   128  PRO128      0.0310
     31  CG         9.5340    1.8550   21.5600 C.3   128  PRO128      0.0237
     32  CD         8.3560    1.7540   20.6170 C.3   128  PRO128      0.0939
     33  N          8.8480   -2.4110   21.8550 N.am  129  LEU129     -0.1978
     34  CA         8.0410   -3.1320   22.8030 C.3   129  LEU129      0.1596
     35  C          8.8910   -4.1200   23.5600 C.2   129  LEU129      0.2287
     36  O          9.8020   -4.7260   22.9800 O.2   129  LEU129     -0.2864
     37  CB         6.9230   -3.8500   22.0610 C.3   129  LEU129      0.0297
     38  CG         6.0460   -2.8770   21.2480 C.3   129  LEU129      0.0022
     39  CD1        5.1750   -3.6200   20.2210 C.3   129  LEU129      0.0001
     40  CD2        5.2370   -2.0040   22.1620 C.3   129  LEU129      0.0001
     41  N         -2.0770    4.5240   15.2360 N.3   160  TRP160     -0.1241
     42  CA        -2.8160    3.4000   15.8220 C.3   160  TRP160      0.1605
     43  C         -3.9940    2.9360   14.9480 C.2   160  TRP160      0.2264
     44  O         -4.4120    1.7710   15.0080 O.2   160  TRP160     -0.2867
     45  CB        -3.2960    3.7930   17.2320 C.3   160  TRP160      0.0550
     46  CG        -2.1930    4.3910   18.0430 C.ar  160  TRP160      0.0003
     47  CD1       -2.0170    5.7040   18.3650 C.ar  160  TRP160      0.0946
     48  CD2       -1.0990    3.6860   18.6150 C.ar  160  TRP160      0.0152
     49  NE1       -0.8720    5.8550   19.1080 N.ar  160  TRP160     -0.2442
     50  CE2       -0.2840    4.6320   19.2690 C.ar  160  TRP160      0.0810
     51  CE3       -0.7120    2.3430   18.6360 C.ar  160  TRP160      0.0012
     52  CZ2        0.8740    4.2780   19.9460 C.ar  160  TRP160      0.0191
     53  CZ3        0.4520    1.9910   19.3100 C.ar  160  TRP160      0.0001
     54  CH2        1.2380    2.9570   19.9360 C.ar  160  TRP160      0.0015
     55  N         -1.6070   -9.8090   26.6800 N.3   276  TYR276     -0.1241
     56  CA        -2.4890   -9.8790   25.5090 C.3   276  TYR276      0.1605
     57  C         -2.9180  -11.3160   25.2240 C.2   276  TYR276      0.2264
     58  O         -2.1530  -12.2890   25.4460 O.2   276  TYR276     -0.2867
     59  CB        -1.8570   -9.1630   24.2990 C.3   276  TYR276      0.0534
     60  CG        -2.0500   -7.6650   24.3670 C.ar  276  TYR276     -0.0201
     61  CD1       -1.2340   -6.8870   25.1750 C.ar  276  TYR276     -0.0009
     62  CD2       -3.0710   -7.0290   23.6650 C.ar  276  TYR276     -0.0009
     63  CE1       -1.3980   -5.5660   25.2780 C.ar  276  TYR276      0.0417
     64  CE2       -3.2420   -5.6410   23.7590 C.ar  276  TYR276      0.0417
     65  CZ        -2.4140   -4.9330   24.5950 C.ar  276  TYR276      0.1957
     66  OH        -2.5560   -3.5800   24.7440 O.3   276  TYR276     -0.2866
     67  N          3.0960   -6.1460   28.6310 N.3   288  TYR288     -0.1241
     68  CA         3.7950   -4.9340   29.0160 C.3   288  TYR288      0.1605
     69  C          3.7340   -4.7700   30.5190 C.2   288  TYR288      0.2264
     70  O          2.6680   -4.5780   31.0780 O.2   288  TYR288     -0.2867
     71  CB         3.2210   -3.7440   28.2220 C.3   288  TYR288      0.0534
     72  CG         3.3380   -4.0730   26.7440 C.ar  288  TYR288     -0.0201
     73  CD1        4.5620   -4.4880   26.2160 C.ar  288  TYR288     -0.0009
     74  CD2        2.2350   -4.0670   25.9000 C.ar  288  TYR288     -0.0009
     75  CE1        4.7040   -4.8540   24.8960 C.ar  288  TYR288      0.0417
     76  CE2        2.3670   -4.4180   24.5440 C.ar  288  TYR288      0.0417
     77  CZ         3.6090   -4.8230   24.0520 C.ar  288  TYR288      0.1957
     78  OH         3.7870   -5.1900   22.7230 O.3   288  TYR288     -0.2866
     79  N          4.3010   -2.1680   32.6430 N.3   290  ASP290     -0.1239
     80  CA         4.5180   -0.7340   32.5320 C.3   290  ASP290      0.1674
     81  C          5.3840   -0.2050   33.6810 C.2   290  ASP290      0.2266
     82  O          6.2930    0.5940   33.4570 O.2   290  ASP290     -0.2867
     83  CB         3.1670   -0.0250   32.4160 C.3   290  ASP290      0.1410
     84  CG         2.4980   -0.2770   31.0700 C.2   290  ASP290      0.3668
     85  OD1        1.2480   -0.2940   31.0000 O.co2 290  ASP290     -0.2456
     86  OD2        3.1580   -0.4920   30.0280 O.co2 290  ASP290     -0.2456
     87  N          9.1290   -0.4560   32.0340 N.3   294  TYR294     -0.1241
     88  CA         9.1520    0.8900   31.4380 C.3   294  TYR294      0.1605
     89  C          9.3620    2.0180   32.4550 C.2   294  TYR294      0.2264
     90  O          9.9220    3.0490   32.1130 O.2   294  TYR294     -0.2867
     91  CB         7.8720    1.1310   30.6350 C.3   294  TYR294      0.0534
     92  CG         7.7930    0.3420   29.3370 C.ar  294  TYR294     -0.0201
     93  CD1        7.1100   -0.8690   29.2700 C.ar  294  TYR294     -0.0009
     94  CD2        8.4250    0.7950   28.1860 C.ar  294  TYR294     -0.0009
     95  CE1        7.0520   -1.6060   28.0770 C.ar  294  TYR294      0.0417
     96  CE2        8.3730    0.0680   26.9990 C.ar  294  TYR294      0.0417
     97  CZ         7.6860   -1.1220   26.9500 C.ar  294  TYR294      0.1957
     98  OH         7.6440   -1.8180   25.7690 O.3   294  TYR294     -0.2866
     99  N          8.5520    7.7310   35.2690 N.3   298  GLN298     -0.1231
    100  CA         9.3520    8.5700   34.4030 C.3   298  GLN298      0.1698
    101  C          8.5400    9.2160   33.2580 C.2   298  GLN298      0.2592
    102  O          8.9840   10.1980   32.6830 O.2   298  GLN298     -0.2718
    103  CB        10.5720    7.7940   33.9060 C.3   298  GLN298      0.0381
    104  CG        10.5750    7.3910   32.5040 C.3   298  GLN298      0.0905
    105  CD        11.8400    6.6480   32.1440 C.2   298  GLN298      0.2608
    106  OE1       11.8670    5.4150   32.1560 O.2   298  GLN298     -0.2717
    107  NE2       12.8740    7.3810   31.8130 N.am  298  GLN298     -0.0878
    108  N          7.3680    8.6580   32.9380 N.am  299  TYR299     -0.1976
    109  CA         6.4850    9.1820   31.8740 C.3   299  TYR299      0.1639
    110  C          5.2700    9.9330   32.4000 C.2   299  TYR299      0.2290
    111  O          4.2920   10.1400   31.6850 O.2   299  TYR299     -0.2864
    112  CB         6.0630    8.0440   30.9380 C.3   299  TYR299      0.0560
    113  CG         7.2810    7.3690   30.3510 C.ar  299  TYR299     -0.0198
    114  CD1        8.1490    8.0890   29.5500 C.ar  299  TYR299     -0.0009
    115  CD2        7.6030    6.0440   30.6560 C.ar  299  TYR299     -0.0009
    116  CE1        9.3080    7.5230   29.0470 C.ar  299  TYR299      0.0417
    117  CE2        8.7600    5.4540   30.1330 C.ar  299  TYR299      0.0417
    118  CZ         9.6050    6.2060   29.3240 C.ar  299  TYR299      0.1957
    119  OH        10.7640    5.6910   28.7990 O.3   299  TYR299     -0.2866
    120  N         15.9860   16.2400   36.3390 N.3   328  ARG328     -0.1245
    121  CA        14.9310   16.6080   35.4200 C.3   328  ARG328      0.1563
    122  C         13.6640   16.7370   36.2610 C.2   328  ARG328      0.2260
    123  O         13.2730   15.8130   36.9710 O.2   328  ARG328     -0.2867
    124  CB        14.7590   15.5030   34.3660 C.3   328  ARG328      0.0307
    125  CG        14.4670   16.0080   32.9570 C.3   328  ARG328      0.0489
    126  CD        13.6330   15.0400   32.1040 C.3   328  ARG328      0.2205
    127  NE        12.2250   15.4410   32.0750 N.pl3 328  ARG328     -0.0865
    128  CZ        11.1800   14.6160   32.1670 C.cat 328  ARG328      0.5346
    129  NH1       11.3420   13.2980   32.2820 N.pl3 328  ARG328      0.1354
    130  NH2        9.9510   15.1250   32.1330 N.pl3 328  ARG328      0.1354
    131  N          1.8330    8.1140   30.6400 N.3   370  THR370     -0.1203
    132  CA         1.5780    7.7000   29.2670 C.3   370  THR370      0.1994
    133  C          2.6540    6.7250   28.8710 C.2   370  THR370      0.2618
    134  O          3.8280    7.0590   28.9270 O.2   370  THR370     -0.2717
    135  CB         1.6830    8.8980   28.3330 C.3   370  THR370      0.1784
    136  OG1        0.6440    9.8460   28.5920 O.3   370  THR370     -0.2211
    137  CG2        1.4400    8.4480   26.8700 C.3   370  THR370      0.0376
    138  N          2.2550    5.5470   28.4300 N.am  371  ILE371     -0.1965
    139  CA         3.1760    4.5190   27.9970 C.3   371  ILE371      0.1727
    140  C          2.7140    4.0940   26.5990 C.2   371  ILE371      0.2617
    141  O          1.7920    3.3020   26.4930 O.2   371  ILE371     -0.2715
    142  CB         3.1160    3.2870   28.9310 C.3   371  ILE371      0.0290
    143  CG1        3.2340    3.6620   30.4190 C.3   371  ILE371      0.0022
    144  CG2        4.1910    2.3190   28.5250 C.3   371  ILE371      0.0023
    145  CD1        4.6280    4.0470   30.8210 C.3   371  ILE371      0.0001
    146  N          3.3150    4.6650   25.5610 N.am  372  GLY372     -0.1940
    147  CA         2.9240    4.4470   24.1760 C.3   372  GLY372      0.2014
    148  C          1.5000    4.8730   23.8450 C.2   372  GLY372      0.2638
    149  O          1.1690    6.0680   23.8360 O.2   372  GLY372     -0.2714
    150  N          0.6510    3.8830   23.5680 N.am  373  ASN373     -0.1972
    151  CA        -0.7710    4.1170   23.3410 C.3   373  ASN373      0.1688
    152  C         -1.6230    4.2940   24.6020 C.2   373  ASN373      0.2292
    153  O         -2.6960    4.9130   24.5210 O.2   373  ASN373     -0.2864
    154  CB        -1.3750    2.9780   22.5130 C.3   373  ASN373      0.1181
    155  CG        -1.2210    1.6550   23.1830 C.2   373  ASN373      0.2629
    156  OD1       -0.0960    1.1780   23.3980 O.2   373  ASN373     -0.2716
    157  ND2       -2.3370    1.0540   23.5550 N.am  373  ASN373     -0.0877
    158  N         -4.6470   -0.6840   21.6850 N.3   398  PHE398     -0.1241
    159  CA        -3.6080   -1.2660   20.8620 C.3   398  PHE398      0.1605
    160  C         -4.3150   -2.0690   19.7700 C.2   398  PHE398      0.2264
    161  O         -5.1750   -2.8910   20.0750 O.2   398  PHE398     -0.2867
    162  CB        -2.7030   -2.1860   21.6720 C.3   398  PHE398      0.0534
    163  CG        -1.3900   -2.4740   21.0040 C.ar  398  PHE398     -0.0203
    164  CD1       -0.2570   -1.7360   21.3190 C.ar  398  PHE398     -0.0042
    165  CD2       -1.2920   -3.4630   20.0400 C.ar  398  PHE398     -0.0042
    166  CE1        0.9520   -2.0020   20.7080 C.ar  398  PHE398     -0.0003
    167  CE2       -0.0780   -3.7240   19.4170 C.ar  398  PHE398     -0.0003
    168  CZ         1.0410   -3.0020   19.7580 C.ar  398  PHE398     -0.0000
@<TRIPOS>BOND
     1    43    44    2
     2    43    42    1
     3    41    42    1
     4    42    45    1
     5    21    22    1
     6    45    46    1
     7    46    47   ar
     8    46    48   ar
     9    47    49   ar
    10    22    25    1
    11    22    23    1
    12    48    51   ar
    13    48    50   ar
    14    51    53   ar
    15    24    23    2
    16    49    50   ar
    17    23    26   am
    18    50    52   ar
    19    53    54   ar
    20   167   168   ar
    21   167   165   ar
    22    13    12    2
    23   168   166   ar
    24   160   161    2
    25   160   159    1
    26    54    52   ar
    27   165   163   ar
    28    26    32    1
    29    26    27    1
    30    39    38    1
    31    12    11    1
    32    32    31    1
    33   166   164   ar
    34    27    30    1
    35    27    28    1
    36   159   162    1
    37   159   158    1
    38   163   164   ar
    39   163   162    1
    40    30    31    1
    41    38    37    1
    42    38    40    1
    43    33    28   am
    44    33    34    1
    45    11    10    1
    46    11    14    1
    47    28    29    2
    48    37    34    1
    49   154   155    1
    50   154   151    1
    51    14    15    1
    52    78    77    1
    53    34    35    1
    54    36    35    2
    55   155   156    2
    56   155   157   am
    57   151   150    1
    58   151   152    1
    59   150   148   am
    60    62    64   ar
    61    62    60   ar
    62    64    65   ar
    63   149   148    2
    64   148   147    1
    65    77    76   ar
    66    77    75   ar
    67    15    17   ar
    68    15    16   ar
    69   147   146    1
    70    17    19   ar
    71    59    60    1
    72    59    56    1
    73    60    61   ar
    74   153   152    2
    75    76    74   ar
    76     4     3    2
    77    65    66    1
    78    65    63   ar
    79    75    73   ar
    80    16    18   ar
    81    61    63   ar
    82    57    58    2
    83    57    56    1
    84     9     7   ar
    85    19    20   ar
    86    56    55    1
    87   146   140   am
    88     3     2    1
    89    98    97    1
    90     8     7   ar
    91    74    72   ar
    92     7     6    1
    93    73    72   ar
    94    18    20   ar
    95   141   140    2
    96   140   139    1
    97    72    71    1
    98   137   135    1
    99     6     5    1
   100    97    96   ar
   101    97    95   ar
   102     2     5    1
   103     2     1    1
   104    96    94   ar
   105   139   138    1
   106   139   142    1
   107    95    93   ar
   108    94    92   ar
   109    71    68    1
   110   135   136    1
   111   135   132    1
   112   138   133   am
   113   144   142    1
   114    67    68    1
   115   119   118    1
   116   133   134    2
   117   133   132    1
   118   142   143    1
   119    68    69    1
   120   116   118   ar
   121   116   114   ar
   122   132   131    1
   123    93    92   ar
   124   118   117   ar
   125    92    91    1
   126   114   113   ar
   127    86    84   ar
   128   117   115   ar
   129   113   115   ar
   130   113   112    1
   131   143   145    1
   132    69    70    2
   133    91    88    1
   134   112   109    1
   135    85    84   ar
   136    84    83    1
   137    88    87    1
   138    88    89    1
   139   111   110    2
   140   107   105   am
   141   109   110    1
   142   109   108    1
   143   127   126    1
   144   127   128    2
   145   126   125    1
   146    90    89    2
   147   130   128    1
   148   105   106    2
   149   105   104    1
   150   128   129    1
   151    83    80    1
   152   104   103    1
   153    80    79    1
   154    80    81    1
   155   102   101    2
   156   108   101   am
   157   125   124    1
   158   101   100    1
   159    82    81    2
   160   103   100    1
   161   124   121    1
   162   100    99    1
   163   121   122    1
   164   121   120    1
   165   122   123    2
