@<TRIPOS>MOLECULE
tmp/2cfmA00.pdb
 179 168 0 0 0
SMALL
GASTEIGER

@<TRIPOS>ATOM
      1  N         50.0440    1.8600   -5.0030 N.3   218  LEU218     -0.1231
      2  CA        48.8770    2.6950   -5.1990 C.3   218  LEU218      0.1693
      3  C         48.5230    2.7840   -6.6550 C.2   218  LEU218      0.2591
      4  O         49.1600    2.1530   -7.4920 O.2   218  LEU218     -0.2718
      5  CB        49.1310    4.0910   -4.6080 C.3   218  LEU218      0.0284
      6  CG        49.6180    3.9830   -3.1480 C.3   218  LEU218      0.0019
      7  CD1       49.8780    5.3830   -2.5740 C.3   218  LEU218      0.0001
      8  CD2       48.5920    3.2340   -2.2950 C.3   218  LEU218      0.0001
      9  N         47.5240    3.5870   -6.9700 N.am  219  ALA219     -0.1980
     10  CA        47.0710    3.6730   -8.3610 C.3   219  ALA219      0.1597
     11  C         46.7420    5.0800   -8.8220 C.2   219  ALA219      0.2287
     12  O         46.3320    5.9200   -8.0280 O.2   219  ALA219     -0.2864
     13  CB        45.8180    2.7890   -8.5320 C.3   219  ALA219      0.0319
     14  N         39.5620   -5.6250  -12.3700 N.3   238  GLU238     -0.1231
     15  CA        38.9950   -6.1450  -11.1340 C.3   238  GLU238      0.1699
     16  C         38.0450   -5.1090  -10.6240 C.2   238  GLU238      0.2592
     17  O         38.2040   -3.9130  -10.8850 O.2   238  GLU238     -0.2718
     18  CB        40.0580   -6.3490  -10.0480 C.3   238  GLU238      0.0402
     19  CG        41.0910   -7.3310  -10.4190 C.3   238  GLU238      0.1161
     20  CD        42.3430   -7.2480   -9.5470 C.2   238  GLU238      0.3649
     21  OE1       42.3670   -6.5050   -8.5360 O.co2 238  GLU238     -0.2457
     22  OE2       43.3090   -7.9490   -9.8900 O.co2 238  GLU238     -0.2457
     23  N         37.0590   -5.5740   -9.8860 N.am  239  ILE239     -0.1966
     24  CA        36.1030   -4.6800   -9.3000 C.3   239  ILE239      0.1727
     25  C         36.9100   -3.8620   -8.3100 C.2   239  ILE239      0.2616
     26  O         37.7910   -4.4070   -7.6270 O.2   239  ILE239     -0.2715
     27  CB        35.0230   -5.4750   -8.5340 C.3   239  ILE239      0.0290
     28  CG1       34.1570   -6.2530   -9.5280 C.3   239  ILE239      0.0022
     29  CG2       34.1900   -4.5230   -7.6780 C.3   239  ILE239      0.0023
     30  CD1       33.2430   -7.2920   -8.8560 C.3   239  ILE239      0.0001
     31  N         36.6560   -2.5590   -8.2680 N.am  240  LYS240     -0.1963
     32  CA        37.3200   -1.7100   -7.2920 C.3   240  LYS240      0.1728
     33  C         36.3320   -1.6480   -6.1450 C.2   240  LYS240      0.2616
     34  O         35.3540   -0.8960   -6.1880 O.2   240  LYS240     -0.2715
     35  CB        37.5850   -0.3010   -7.8090 C.3   240  LYS240      0.0311
     36  CG        38.2670    0.5950   -6.7410 C.3   240  LYS240      0.0038
     37  CD        38.6500    1.9540   -7.3230 C.3   240  LYS240      0.0206
     38  CE        39.6200    2.6970   -6.4160 C.3   240  LYS240      0.1093
     39  NZ        39.0260    3.2870   -5.1740 N.3   240  LYS240     -0.1314
     40  N         36.5930   -2.4670   -5.1320 N.am  241  TYR241     -0.1974
     41  CA        35.7580   -2.5610   -3.9450 C.3   241  TYR241      0.1639
     42  C         35.8600   -1.3420   -3.0570 C.2   241  TYR241      0.2290
     43  O         36.9450   -0.8150   -2.8350 O.2   241  TYR241     -0.2864
     44  CB        36.1650   -3.7960   -3.1480 C.3   241  TYR241      0.0560
     45  CG        35.9770   -5.0640   -3.9320 C.ar  241  TYR241     -0.0198
     46  CD1       37.0290   -5.6370   -4.6500 C.ar  241  TYR241     -0.0009
     47  CD2       34.7320   -5.6850   -3.9730 C.ar  241  TYR241     -0.0009
     48  CE1       36.8380   -6.7960   -5.3880 C.ar  241  TYR241      0.0417
     49  CE2       34.5340   -6.8280   -4.7090 C.ar  241  TYR241      0.0417
     50  CZ        35.5830   -7.3740   -5.4090 C.ar  241  TYR241      0.1957
     51  OH        35.3760   -8.4900   -6.1440 O.3   241  TYR241     -0.2866
     52  N         41.3510   -0.9450    2.7470 N.3   245  ARG245     -0.1245
     53  CA        42.3910   -1.8380    2.2800 C.3   245  ARG245      0.1563
     54  C         43.1530   -2.4310    3.4530 C.2   245  ARG245      0.2260
     55  O         43.5390   -1.7150    4.3820 O.2   245  ARG245     -0.2867
     56  CB        43.3400   -1.0460    1.3960 C.3   245  ARG245      0.0307
     57  CG        44.4010   -1.8690    0.7290 C.3   245  ARG245      0.0489
     58  CD        45.1640   -0.9830   -0.2480 C.3   245  ARG245      0.2205
     59  NE        46.1940   -1.7360   -0.9750 N.pl3 245  ARG245     -0.0865
     60  CZ        46.8930   -1.2320   -1.9800 C.cat 245  ARG245      0.5346
     61  NH1       46.6570    0.0160   -2.3860 N.pl3 245  ARG245      0.1354
     62  NH2       47.8590   -1.9580   -2.5420 N.pl3 245  ARG245      0.1354
     63  N         45.3740    0.3710    5.9250 N.3   260  ARG260     -0.1245
     64  CA        46.0860    1.1920    4.9530 C.3   260  ARG260      0.1563
     65  C         47.2330    1.9870    5.6090 C.2   260  ARG260      0.2260
     66  O         48.3130    2.1160    5.0230 O.2   260  ARG260     -0.2867
     67  CB        45.0770    2.1110    4.2490 C.3   260  ARG260      0.0307
     68  CG        45.7120    3.1710    3.3460 C.3   260  ARG260      0.0489
     69  CD        46.6380    2.6070    2.2590 C.3   260  ARG260      0.2205
     70  NE        47.2760    3.7180    1.5480 N.pl3 260  ARG260     -0.0865
     71  CZ        46.7490    4.3440    0.4990 C.cat 260  ARG260      0.5346
     72  NH1       45.5720    3.9710    0.0000 N.pl3 260  ARG260      0.1354
     73  NH2       47.3890    5.3780   -0.0310 N.pl3 260  ARG260      0.1354
     74  N         40.6040   -5.7290   -0.2280 N.3   290  GLU290     -0.1245
     75  CA        39.7270   -4.6580    0.2320 C.3   290  GLU290      0.1567
     76  C         38.6850   -5.2850    1.1590 C.2   290  GLU290      0.2260
     77  O         37.9430   -6.2080    0.7910 O.2   290  GLU290     -0.2867
     78  CB        39.0460   -3.9630   -0.9580 C.3   290  GLU290      0.0388
     79  CG        38.2780   -2.6840   -0.5550 C.3   290  GLU290      0.1160
     80  CD        39.1730   -1.4740   -0.3520 C.2   290  GLU290      0.3649
     81  OE1       40.4170   -1.5940   -0.4900 O.co2 290  GLU290     -0.2457
     82  OE2       38.6240   -0.3880   -0.0580 O.co2 290  GLU290     -0.2457
     83  N         43.1700   -9.2480   -3.4030 N.3   328  PHE328     -0.1241
     84  CA        43.5350   -8.9300   -4.7620 C.3   328  PHE328      0.1605
     85  C         45.0180   -9.0290   -5.0400 C.2   328  PHE328      0.2264
     86  O         45.4400   -8.8130   -6.1520 O.2   328  PHE328     -0.2867
     87  CB        42.9590   -7.5710   -5.1750 C.3   328  PHE328      0.0534
     88  CG        43.3780   -6.4290   -4.3130 C.ar  328  PHE328     -0.0203
     89  CD1       44.6960   -5.9830   -4.3040 C.ar  328  PHE328     -0.0042
     90  CD2       42.4350   -5.7570   -3.5320 C.ar  328  PHE328     -0.0042
     91  CE1       45.0690   -4.8830   -3.5270 C.ar  328  PHE328     -0.0003
     92  CE2       42.7950   -4.6600   -2.7590 C.ar  328  PHE328     -0.0003
     93  CZ        44.1150   -4.2200   -2.7520 C.ar  328  PHE328     -0.0000
     94  N         39.1100  -11.1940   -5.3560 N.3   363  ALA363     -0.1245
     95  CA        38.5260  -10.1450   -6.1880 C.3   363  ALA363      0.1562
     96  C         38.1520  -10.6820   -7.5530 C.2   363  ALA363      0.2260
     97  O         38.9490  -11.3410   -8.2020 O.2   363  ALA363     -0.2867
     98  CB        39.5130   -8.9720   -6.3450 C.3   363  ALA363      0.0290
     99  N         32.9550    0.8350   -6.6080 N.3   386  GLU386     -0.1245
    100  CA        33.4740    2.0860   -7.1400 C.3   386  GLU386      0.1567
    101  C         33.7410    2.2030   -8.6010 C.2   386  GLU386      0.2260
    102  O         33.7400    3.3130   -9.1360 O.2   386  GLU386     -0.2867
    103  CB        34.7750    2.4660   -6.4420 C.3   386  GLU386      0.0388
    104  CG        34.6680    2.4350   -4.9540 C.3   386  GLU386      0.1160
    105  CD        35.9490    2.8670   -4.3150 C.2   386  GLU386      0.3649
    106  OE1       36.9270    2.1130   -4.4140 O.co2 386  GLU386     -0.2457
    107  OE2       35.9760    3.9630   -3.7350 O.co2 386  GLU386     -0.2457
    108  N         45.0430   -3.4760  -14.1200 N.3   390  LYS390     -0.1245
    109  CA        46.4110   -3.7360  -13.6800 C.3   390  LYS390      0.1561
    110  C         47.2110   -4.3650  -14.8010 C.2   390  LYS390      0.2260
    111  O         46.7350   -5.2790  -15.4620 O.2   390  LYS390     -0.2867
    112  CB        46.3760   -4.6810  -12.4850 C.3   390  LYS390      0.0271
    113  CG        45.6220   -4.0840  -11.3070 C.3   390  LYS390      0.0035
    114  CD        45.5580   -5.0350  -10.1480 C.3   390  LYS390      0.0206
    115  CE        44.8280   -4.3470   -9.0040 C.3   390  LYS390      0.1093
    116  NZ        44.6310   -5.2850   -7.8730 N.3   390  LYS390     -0.1314
    117  N         52.6950    5.2770   -6.5360 N.3   401  ARG401     -0.1245
    118  CA        51.4250    5.5690   -7.1880 C.3   401  ARG401      0.1563
    119  C         51.7820    5.7390   -8.6600 C.2   401  ARG401      0.2260
    120  O         51.9470    6.8440   -9.1620 O.2   401  ARG401     -0.2867
    121  CB        50.7690    6.8370   -6.6320 C.3   401  ARG401      0.0307
    122  CG        49.3700    7.0730   -7.2340 C.3   401  ARG401      0.0489
    123  CD        48.6880    8.3340   -6.7220 C.3   401  ARG401      0.2205
    124  NE        48.2510    8.2350   -5.3370 N.pl3 401  ARG401     -0.0865
    125  CZ        48.8920    8.7380   -4.2800 C.cat 401  ARG401      0.5346
    126  NH1       50.0410    9.4040   -4.4160 N.pl3 401  ARG401      0.1354
    127  NH2       48.3680    8.5790   -3.0680 N.pl3 401  ARG401      0.1354
    128  N         48.8720    0.2390  -12.0050 N.3   405  TRP405     -0.1241
    129  CA        47.5390   -0.0320  -11.4920 C.3   405  TRP405      0.1605
    130  C         46.8330    1.2730  -11.7990 C.2   405  TRP405      0.2264
    131  O         47.3830    2.3560  -11.5460 O.2   405  TRP405     -0.2867
    132  CB        47.4940   -0.2000   -9.9830 C.3   405  TRP405      0.0550
    133  CG        47.9150   -1.5100   -9.4630 C.ar  405  TRP405      0.0003
    134  CD1       48.5990   -2.4710  -10.1150 C.ar  405  TRP405      0.0946
    135  CD2       47.7300   -1.9660   -8.1240 C.ar  405  TRP405      0.0152
    136  NE1       48.8680   -3.5220   -9.2530 N.ar  405  TRP405     -0.2442
    137  CE2       48.3370   -3.2280   -8.0250 C.ar  405  TRP405      0.0810
    138  CE3       47.1050   -1.4190   -6.9950 C.ar  405  TRP405      0.0012
    139  CZ2       48.3450   -3.9710   -6.8300 C.ar  405  TRP405      0.0191
    140  CZ3       47.1120   -2.1530   -5.8010 C.ar  405  TRP405      0.0001
    141  CH2       47.7340   -3.4170   -5.7380 C.ar  405  TRP405      0.0015
    142  N         42.8410    3.2080  -11.6760 N.3   407  LYS407     -0.1245
    143  CA        41.4790    3.1650  -11.1900 C.3   407  LYS407      0.1561
    144  C         40.6040    3.8060  -12.2550 C.2   407  LYS407      0.2260
    145  O         40.9900    4.8160  -12.8410 O.2   407  LYS407     -0.2867
    146  CB        41.3360    3.9980   -9.9160 C.3   407  LYS407      0.0271
    147  CG        42.1340    3.4950   -8.7690 C.3   407  LYS407      0.0035
    148  CD        42.2190    4.5790   -7.6720 C.3   407  LYS407      0.0206
    149  CE        43.0370    5.7820   -8.1260 C.3   407  LYS407      0.1093
    150  NZ        43.3000    6.6900   -6.9690 N.3   407  LYS407     -0.1314
    151  N         38.1660   11.1840   -8.4050 N.3   412  GLU412     -0.1245
    152  CA        38.2030   10.6600   -7.0560 C.3   412  GLU412      0.1567
    153  C         38.3750   11.7350   -5.9980 C.2   412  GLU412      0.2260
    154  O         39.0000   12.7680   -6.2230 O.2   412  GLU412     -0.2867
    155  CB        39.3040    9.6300   -6.8780 C.3   412  GLU412      0.0388
    156  CG        39.1670    8.9290   -5.5400 C.3   412  GLU412      0.1160
    157  CD        40.1880    7.8380   -5.3640 C.2   412  GLU412      0.3649
    158  OE1       41.1980    7.8650   -6.0960 O.co2 412  GLU412     -0.2457
    159  OE2       39.9920    6.9770   -4.4800 O.co2 412  GLU412     -0.2457
    160  N         43.9630    6.1720    7.3010 N.3   519  LYS519     -0.1245
    161  CA        45.1290    6.7840    6.6710 C.3   519  LYS519      0.1561
    162  C         45.8030    7.7300    7.6380 C.2   519  LYS519      0.2260
    163  O         45.1450    8.5690    8.2500 O.2   519  LYS519     -0.2867
    164  CB        44.7590    7.5680    5.4120 C.3   519  LYS519      0.0271
    165  CG        44.5820    6.6730    4.2030 C.3   519  LYS519      0.0035
    166  CD        44.4120    7.4910    2.9250 C.3   519  LYS519      0.0206
    167  CE        44.2270    6.5930    1.7180 C.3   519  LYS519      0.1093
    168  NZ        44.0870    7.4140    0.4730 N.3   519  LYS519     -0.1314
    169  N         49.8630   13.8050   -6.3790 N.3   529  ARG529     -0.1245
    170  CA        48.5900   13.1310   -6.5980 C.3   529  ARG529      0.1563
    171  C         47.5710   14.1580   -7.0810 C.2   529  ARG529      0.2260
    172  O         46.8060   13.9060   -8.0090 O.2   529  ARG529     -0.2867
    173  CB        48.1200   12.5010   -5.2950 C.3   529  ARG529      0.0307
    174  CG        46.6590   12.1000   -5.2720 C.3   529  ARG529      0.0489
    175  CD        46.4260   10.6870   -5.7440 C.3   529  ARG529      0.2205
    176  NE        45.0660   10.2630   -5.4080 N.pl3 529  ARG529     -0.0865
    177  CZ        44.0550   10.2020   -6.2650 C.cat 529  ARG529      0.5346
    178  NH1       44.2320   10.5220   -7.5350 N.pl3 529  ARG529      0.1354
    179  NH2       42.8540    9.8510   -5.8370 N.pl3 529  ARG529      0.1354
@<TRIPOS>BOND
     1   111   110    2
     2   110   109    1
     3   108   109    1
     4   109   112    1
     5   145   144    2
     6   112   113    1
     7    14    15    1
     8   144   143    1
     9   128   129    1
    10   130   131    2
    11   130   129    1
    12   142   143    1
    13   129   132    1
    14   113   114    1
    15   143   146    1
    16    15    16    1
    17    15    18    1
    18    17    16    2
    19    16    23   am
    20    19    18    1
    21    19    20    1
    22   114   115    1
    23   134   133   ar
    24   134   136   ar
    25   132   133    1
    26   146   147    1
    27    22    20   ar
    28    23    24    1
    29    20    21   ar
    30    28    30    1
    31    28    27    1
    32   133   135   ar
    33    24    27    1
    34    24    25    1
    35   136   137   ar
    36   120   119    2
    37   102   101    2
    38   115   116    1
    39    11    10    1
    40    11    12    2
    41   147   148    1
    42   119   118    1
    43   101   100    1
    44    27    29    1
    45    13    10    1
    46   151   152    1
    47    10     9    1
    48    25    31   am
    49    25    26    2
    50    31    32    1
    51    97    96    2
    52   149   148    1
    53   149   150    1
    54   135   137   ar
    55   135   138   ar
    56   137   139   ar
    57   172   171    2
    58    35    32    1
    59    35    36    1
    60    96    95    1
    61   178   177    1
    62     4     3    2
    63    37    36    1
    64    37    38    1
    65    32    33    1
    66   122   123    1
    67   122   121    1
    68   118   121    1
    69   118   117    1
    70   100    99    1
    71   100   103    1
    72   171   170    1
    73   152   155    1
    74   152   153    1
    75   138   140   ar
    76     9     3   am
    77   155   156    1
    78   139   141   ar
    79   123   124    1
    80     3     2    1
    81   170   169    1
    82   170   173    1
    83   103   104    1
    84    38    39    1
    85    98    95    1
    86   177   179    1
    87   177   176    2
    88   154   153    2
    89    34    33    2
    90    95    94    1
    91    86    85    2
    92    33    40   am
    93    51    50    1
    94   158   157   ar
    95   140   141   ar
    96   175   176    1
    97   175   174    1
    98   156   157    1
    99    50    48   ar
   100    50    49   ar
   101    48    46   ar
   102   157   159   ar
   103   124   125    2
   104   173   174    1
   105     2     1    1
   106     2     5    1
   107    87    84    1
   108    87    88    1
   109    40    41    1
   110    85    84    1
   111   104   105    1
   112    84    83    1
   113    49    47   ar
   114    46    45   ar
   115     5     6    1
   116   126   125    1
   117   106   105   ar
   118   105   107   ar
   119    88    89   ar
   120    88    90   ar
   121    89    91   ar
   122   125   127    1
   123    47    45   ar
   124    41    44    1
   125    41    42    1
   126    45    44    1
   127    90    92   ar
   128    91    93   ar
   129     6     7    1
   130     6     8    1
   131    42    43    2
   132    92    93   ar
   133    62    60    1
   134    61    60    1
   135    60    59    2
   136    59    58    1
   137    78    79    1
   138    78    75    1
   139    79    80    1
   140    81    80   ar
   141    80    82   ar
   142    58    57    1
   143    74    75    1
   144    73    71    1
   145    72    71    1
   146    75    76    1
   147   168   167    1
   148    71    70    2
   149    57    56    1
   150    77    76    2
   151    56    53    1
   152    70    69    1
   153   167   166    1
   154    69    68    1
   155    53    52    1
   156    53    54    1
   157   166   165    1
   158    68    67    1
   159    54    55    2
   160   165   164    1
   161    67    64    1
   162    64    65    1
   163    64    63    1
   164    66    65    2
   165   164   161    1
   166   161   160    1
   167   161   162    1
   168   162   163    2
