@<TRIPOS>MOLECULE
tmp/2cfoA00.pdb
 113 109 0 0 0
SMALL
GASTEIGER

@<TRIPOS>ATOM
      1  N          2.3180  -18.9710   33.3810 N.3     5  ARG5       -0.1231
      2  CA         3.3730  -18.1390   33.9500 C.3     5  ARG5        0.1694
      3  C          2.9030  -17.2110   35.0560 C.2     5  ARG5        0.2592
      4  O          1.7720  -16.7550   35.0490 O.2     5  ARG5       -0.2718
      5  CB         4.0620  -17.3220   32.8180 C.3     5  ARG5        0.0321
      6  CG         3.3820  -16.0070   32.3040 C.3     5  ARG5        0.0489
      7  CD         1.9720  -16.1890   31.7230 C.3     5  ARG5        0.2205
      8  NE         1.4960  -14.9510   31.1000 N.pl3   5  ARG5       -0.0865
      9  CZ         0.7940  -13.9970   31.7290 C.cat   5  ARG5        0.5346
     10  NH1        0.4290  -14.1250   33.0010 N.pl3   5  ARG5        0.1354
     11  NH2        0.4360  -12.9130   31.0730 N.pl3   5  ARG5        0.1354
     12  N          3.7720  -16.9440   36.0150 N.am    6  LEU6       -0.1966
     13  CA         3.5030  -15.8820   36.9540 C.3     6  LEU6        0.1728
     14  C          4.3180  -14.6910   36.4830 C.2     6  LEU6        0.2616
     15  O          5.4910  -14.8560   36.0820 O.2     6  LEU6       -0.2715
     16  CB         3.8520  -16.2830   38.3830 C.3     6  LEU6        0.0311
     17  CG         3.3040  -15.3090   39.4450 C.3     6  LEU6        0.0022
     18  CD1        1.7910  -15.4810   39.7160 C.3     6  LEU6        0.0001
     19  CD2        4.0730  -15.4650   40.7140 C.3     6  LEU6        0.0001
     20  N          3.7010  -13.5080   36.4710 N.am    7  ALA7       -0.1964
     21  CA         4.4150  -12.3100   36.0110 C.3     7  ALA7        0.1713
     22  C          4.3540  -11.1630   37.0390 C.2     7  ALA7        0.2458
     23  O          3.8090  -10.0660   36.7590 O.2     7  ALA7       -0.2730
     24  CB         3.9430  -11.8670   34.6220 C.3     7  ALA7        0.0333
     25  N          4.9660  -11.3890   38.2160 N.am    8  PRO8       -0.2716
     26  CA         4.8670  -10.3250   39.1920 C.3     8  PRO8        0.1536
     27  C          5.8530   -9.2010   38.8960 C.2     8  PRO8        0.2599
     28  O          6.8930   -9.4320   38.2600 O.2     8  PRO8       -0.2715
     29  CB         5.1960  -11.0240   40.5150 C.3     8  PRO8        0.0310
     30  CG         5.9930  -12.1680   40.1560 C.3     8  PRO8        0.0237
     31  CD         5.7790  -12.5100   38.7150 C.3     8  PRO8        0.0939
     32  N          5.4410   -7.9890   39.2390 N.am    9  SER9       -0.1950
     33  CA         6.3360   -6.8590   39.2550 C.3     9  SER9        0.1924
     34  C          6.9010   -6.8030   40.6750 C.2     9  SER9        0.2314
     35  O          6.1180   -6.8560   41.6350 O.2     9  SER9       -0.2863
     36  CB         5.5900   -5.5770   38.9370 C.3     9  SER9        0.2116
     37  OG         4.5890   -5.3610   39.9130 O.3     9  SER9       -0.2180
     38  N         -2.9840  -16.3820   42.5610 N.3    21  THR21      -0.1218
     39  CA        -2.8650  -16.5600   41.1410 C.3    21  THR21       0.1862
     40  C         -1.7830  -17.6130   40.8380 C.2    21  THR21       0.2287
     41  O         -2.0180  -18.5310   40.0250 O.2    21  THR21      -0.2866
     42  CB        -2.5810  -15.2140   40.4750 C.3    21  THR21       0.1770
     43  OG1       -3.7420  -14.4000   40.6160 O.3    21  THR21      -0.2211
     44  CG2       -2.2420  -15.3550   38.9950 C.3    21  THR21       0.0375
     45  N          8.9030   -8.8860   36.1420 N.3    41  GLU41      -0.1245
     46  CA         8.6990   -7.6760   35.3760 C.3    41  GLU41       0.1567
     47  C          9.4350   -6.5260   36.0260 C.2    41  GLU41       0.2260
     48  O          8.8240   -5.5500   36.4950 O.2    41  GLU41      -0.2867
     49  CB         7.2010   -7.4010   35.2110 C.3    41  GLU41       0.0388
     50  CG         6.4800   -8.5070   34.4520 C.3    41  GLU41       0.1160
     51  CD         5.0620   -8.1410   34.0240 C.2    41  GLU41       0.3649
     52  OE1        4.2580   -7.6730   34.8740 O.co2  41  GLU41      -0.2457
     53  OE2        4.7460   -8.3850   32.8160 O.co2  41  GLU41      -0.2457
     54  N          3.1690   -2.0120   29.6970 N.3   191  TYR191     -0.1241
     55  CA         2.7930   -3.3730   30.1600 C.3   191  TYR191      0.1605
     56  C          2.1980   -4.2940   29.0920 C.2   191  TYR191      0.2264
     57  O          2.6770   -5.4240   28.9200 O.2   191  TYR191     -0.2867
     58  CB         1.8690   -3.3230   31.4310 C.3   191  TYR191      0.0534
     59  CG         1.0680   -4.6080   31.6280 C.ar  191  TYR191     -0.0201
     60  CD1        1.7000   -5.8150   32.0740 C.ar  191  TYR191     -0.0009
     61  CD2       -0.2980   -4.6640   31.2850 C.ar  191  TYR191     -0.0009
     62  CE1        0.9680   -7.0370   32.1790 C.ar  191  TYR191      0.0417
     63  CE2       -1.0310   -5.8760   31.3930 C.ar  191  TYR191      0.0417
     64  CZ        -0.3960   -7.0460   31.8340 C.ar  191  TYR191      0.1957
     65  OH        -1.1230   -8.2080   31.9240 O.3   191  TYR191     -0.2866
     66  N          3.9020   -7.8990   27.8770 N.3   195  VAL195     -0.1245
     67  CA         3.2800   -9.1450   28.2650 C.3   195  VAL195      0.1561
     68  C          2.9540  -10.0580   27.0410 C.2   195  VAL195      0.2260
     69  O          3.1790  -11.2700   27.1170 O.2   195  VAL195     -0.2867
     70  CB         2.0560   -8.8760   29.1500 C.3   195  VAL195      0.0252
     71  CG1        0.9440   -8.2820   28.3300 C.3   195  VAL195      0.0019
     72  CG2        1.5960  -10.1190   29.8150 C.3   195  VAL195      0.0019
     73  N         -3.6130  -16.8020   33.3720 N.3   208  ILE208     -0.1231
     74  CA        -4.5230  -16.7100   34.5380 C.3   208  ILE208      0.1692
     75  C         -4.3770  -15.3520   35.1550 C.2   208  ILE208      0.2592
     76  O         -3.3020  -14.9240   35.5170 O.2   208  ILE208     -0.2718
     77  CB        -4.3360  -17.8590   35.5730 C.3   208  ILE208      0.0266
     78  CG1       -4.5980  -19.2110   34.9060 C.3   208  ILE208      0.0019
     79  CG2       -5.2760  -17.7010   36.7780 C.3   208  ILE208      0.0020
     80  CD1       -4.1250  -20.3720   35.7730 C.3   208  ILE208      0.0001
     81  N         -5.4860  -14.6660   35.2540 N.am  209  ARG209     -0.1966
     82  CA        -5.4780  -13.2700   35.6700 C.3   209  ARG209      0.1729
     83  C         -6.6250  -12.9480   36.5920 C.2   209  ARG209      0.2616
     84  O         -7.6390  -13.6400   36.5840 O.2   209  ARG209     -0.2715
     85  CB        -5.5950  -12.3810   34.4360 C.3   209  ARG209      0.0348
     86  CG        -4.3470  -12.2140   33.6960 C.3   209  ARG209      0.0492
     87  CD        -4.2980  -10.8300   33.1710 C.3   209  ARG209      0.2205
     88  NE        -4.9510  -10.6930   31.8960 N.pl3 209  ARG209     -0.0865
     89  CZ        -4.2970  -10.5460   30.7570 C.cat 209  ARG209      0.5346
     90  NH1       -2.9720  -10.5030   30.7730 N.pl3 209  ARG209      0.1354
     91  NH2       -4.9750  -10.4360   29.6010 N.pl3 209  ARG209      0.1354
     92  N         -6.4380  -11.8980   37.3970 N.am  210  GLY210     -0.1955
     93  CA        -7.4940  -11.3380   38.2070 C.3   210  GLY210      0.1869
     94  C         -8.4430  -10.6170   37.2730 C.2   210  GLY210      0.2309
     95  O         -8.0080  -10.0520   36.2210 O.2   210  GLY210     -0.2863
     96  N         -9.9150   -7.9460   37.7770 N.3   212  ASP212     -0.1225
     97  CA        -9.7120   -6.5100   37.7840 C.3   212  ASP212      0.1805
     98  C         -8.8720   -6.0210   36.5780 C.2   212  ASP212      0.2597
     99  O         -8.9040   -4.8300   36.2580 O.2   212  ASP212     -0.2718
    100  CB        -9.1670   -6.0140   39.1430 C.3   212  ASP212      0.1424
    101  CG        -7.7810   -6.5400   39.4690 C.2   212  ASP212      0.3668
    102  OD1       -7.3940   -7.6750   39.0390 O.co2 212  ASP212     -0.2456
    103  OD2       -7.0800   -5.8050   40.2060 O.co2 212  ASP212     -0.2456
    104  N         -8.1760   -6.9470   35.8920 N.am  213  HIS213     -0.1975
    105  CA        -7.3960   -6.6150   34.6680 C.3   213  HIS213      0.1656
    106  C         -8.0000   -7.2030   33.3800 C.2   213  HIS213      0.2291
    107  O         -7.3250   -7.2670   32.3330 O.2   213  HIS213     -0.2864
    108  CB        -5.9040   -6.9920   34.8260 C.3   213  HIS213      0.0771
    109  CG        -5.2660   -6.4070   36.0520 C.ar  213  HIS213      0.0820
    110  ND1       -4.4500   -7.1430   36.8890 N.ar  213  HIS213     -0.2267
    111  CD2       -5.3870   -5.1770   36.6220 C.ar  213  HIS213      0.1154
    112  CE1       -4.0750   -6.3830   37.9060 C.ar  213  HIS213      0.1986
    113  NE2       -4.6270   -5.1860   37.7660 N.ar  213  HIS213     -0.2212
@<TRIPOS>BOND
     1    68    69    2
     2    68    67    1
     3    66    67    1
     4    67    70    1
     5    71    70    1
     6    57    56    2
     7    56    55    1
     8    70    72    1
     9    91    89    1
    10    54    55    1
    11    55    58    1
    12    89    90    1
    13    89    88    2
    14    11     9    1
    15     8     7    1
    16     8     9    2
    17    61    63   ar
    18    61    59   ar
    19    63    64   ar
    20    58    59    1
    21    59    60   ar
    22     7     6    1
    23     9    10    1
    24    64    65    1
    25    64    62   ar
    26    88    87    1
    27    60    62   ar
    28     6     5    1
    29   107   106    2
    30    53    51   ar
    31     5     2    1
    32    87    86    1
    33    73    74    1
    34   106   105    1
    35     1     2    1
    36    86    85    1
    37     2     3    1
    38    51    50    1
    39    51    52   ar
    40    85    82    1
    41    50    49    1
    42    74    75    1
    43    74    77    1
    44    24    21    1
    45   105   108    1
    46   105   104    1
    47   108   109    1
    48    78    77    1
    49    78    80    1
    50     4     3    2
    51     3    12   am
    52    75    81   am
    53    75    76    2
    54    49    46    1
    55    81    82    1
    56    46    47    1
    57    46    45    1
    58    77    79    1
    59    82    83    1
    60   104    98   am
    61    21    20    1
    62    21    22    1
    63    12    13    1
    64    47    48    2
    65   109   111   ar
    66   109   110   ar
    67    15    14    2
    68    95    94    2
    69    99    98    2
    70    20    14   am
    71    14    13    1
    72    98    97    1
    73    84    83    2
    74    83    92   am
    75   111   113   ar
    76    23    22    2
    77   110   112   ar
    78    13    16    1
    79    22    25   am
    80    94    93    1
    81    92    93    1
    82   113   112   ar
    83    96    97    1
    84    97   100    1
    85    25    31    1
    86    25    26    1
    87    28    27    2
    88    16    17    1
    89    31    30    1
    90    27    26    1
    91    27    32   am
    92    36    33    1
    93    36    37    1
    94    44    42    1
    95   102   101   ar
    96   100   101    1
    97    26    29    1
    98    32    33    1
    99    33    34    1
   100    17    18    1
   101    17    19    1
   102   101   103   ar
   103    41    40    2
   104    30    29    1
   105    42    43    1
   106    42    39    1
   107    34    35    2
   108    40    39    1
   109    39    38    1
