@<TRIPOS>MOLECULE
tmp/2cftA00.pdb
 174 165 0 0 0
SMALL
GASTEIGER

@<TRIPOS>ATOM
      1  N         27.7840   25.2610   25.9180 N.3    25  ASP25      -0.1225
      2  CA        27.3560   24.4930   24.7520 C.3    25  ASP25       0.1805
      3  C         27.1590   23.0400   25.2980 C.2    25  ASP25       0.2598
      4  O         27.6270   22.7200   26.4100 O.2    25  ASP25      -0.2718
      5  CB        28.4760   24.6430   23.7290 C.3    25  ASP25       0.1424
      6  CG        28.4640   23.6080   22.6410 C.2    25  ASP25       0.3668
      7  OD1       27.3680   23.2290   22.1400 O.co2  25  ASP25      -0.2456
      8  OD2       29.5890   23.2550   22.2110 O.co2  25  ASP25      -0.2456
      9  N         26.4250   22.2110   24.5680 N.am   26  CYS26      -0.1956
     10  CA        25.9800   20.9340   25.0850 C.3    26  CYS26       0.1843
     11  C         26.7140   19.7620   24.4300 C.2    26  CYS26       0.2625
     12  O         27.5570   19.1180   25.0550 O.2    26  CYS26      -0.2714
     13  CB        24.4500   20.8430   24.9400 C.3    26  CYS26       0.0997
     14  SG        23.6620   22.1710   25.9150 S.3    26  CYS26      -0.0797
     15  N         26.4490   19.4920   23.1490 N.am   27  ASP27      -0.1971
     16  CA        27.0840   18.3320   22.5470 C.3    27  ASP27       0.1709
     17  C         28.5750   18.6270   22.4020 C.2    27  ASP27       0.2293
     18  O         28.9600   19.7600   22.0440 O.2    27  ASP27      -0.2864
     19  CB        26.4810   18.0260   21.1820 C.3    27  ASP27       0.1436
     20  CG        27.1630   16.8490   20.5240 C.2    27  ASP27       0.3671
     21  OD1       27.0420   15.7230   21.0980 O.co2  27  ASP27      -0.2456
     22  OD2       27.8890   17.0830   19.5170 O.co2  27  ASP27      -0.2456
     23  N         22.2620   25.2730   23.0920 N.3    58  SER58      -0.1202
     24  CA        22.4730   24.2390   22.0610 C.3    58  SER58       0.2020
     25  C         21.8430   24.6400   20.7300 C.2    58  SER58       0.2619
     26  O         20.7130   25.1130   20.7070 O.2    58  SER58      -0.2717
     27  CB        21.8270   22.9370   22.5040 C.3    58  SER58       0.2103
     28  OG        22.1000   21.8820   21.5720 O.3    58  SER58      -0.2182
     29  N         22.5520   24.3720   19.6280 N.am   59  ASN59      -0.1960
     30  CA        21.9920   24.5660   18.2940 C.3    59  ASN59       0.1819
     31  C         21.0350   23.4540   17.8670 C.2    59  ASN59       0.2621
     32  O         20.4740   23.4760   16.7640 O.2    59  ASN59      -0.2715
     33  CB        23.1300   24.7340   17.2600 C.3    59  ASN59       0.1195
     34  CG        23.5830   26.2060   17.1320 C.2    59  ASN59       0.2630
     35  OD1       23.0240   27.0750   17.7970 O.2    59  ASN59      -0.2716
     36  ND2       24.6210   26.4610   16.3400 N.am   59  ASN59      -0.0877
     37  N         20.8630   22.4660   18.7380 N.am   60  ASN60      -0.1958
     38  CA        20.0640   21.3050   18.3990 C.3    60  ASN60       0.1819
     39  C         18.6140   21.7430   18.2430 C.2    60  ASN60       0.2622
     40  O         18.0310   22.2660   19.1890 O.2    60  ASN60      -0.2715
     41  CB        20.1860   20.2110   19.4680 C.3    60  ASN60       0.1195
     42  CG        19.8080   18.8300   18.9460 C.2    60  ASN60       0.2630
     43  OD1       18.8810   18.7000   18.1720 O.2    60  ASN60      -0.2716
     44  ND2       20.5490   17.7940   19.3630 N.am   60  ASN60      -0.0877
     45  N         18.0610   21.5610   17.0400 N.am   61  SER61      -0.1936
     46  CA        16.6580   21.9050   16.7590 C.3    61  SER61       0.2055
     47  C         15.7410   20.6790   16.8400 C.2    61  SER61       0.2642
     48  O         14.5970   20.7630   16.4360 O.2    61  SER61      -0.2714
     49  CB        16.5300   22.5290   15.3640 C.3    61  SER61       0.2130
     50  OG        17.0900   21.6810   14.3520 O.3    61  SER61      -0.2179
     51  N         16.2330   19.5630   17.3550 N.am   62  ARG62      -0.1977
     52  CA        15.4050   18.3310   17.3860 C.3    62  ARG62       0.1597
     53  C         14.3640   18.3090   18.4920 C.2    62  ARG62       0.2287
     54  O         13.2870   17.7380   18.3030 O.2    62  ARG62      -0.2864
     55  CB        16.2420   17.0580   17.5060 C.3    62  ARG62       0.0334
     56  CG        16.6810   16.5010   16.1680 C.3    62  ARG62       0.0492
     57  CD        17.4450   15.2070   16.3820 C.3    62  ARG62       0.2205
     58  NE        17.1330   14.1950   15.3750 N.pl3  62  ARG62      -0.0865
     59  CZ        16.0560   13.4140   15.3930 C.cat  62  ARG62       0.5346
     60  NH1       15.1580   13.5140   16.3690 N.pl3  62  ARG62       0.1354
     61  NH2       15.8740   12.5300   14.4300 N.pl3  62  ARG62       0.1354
     62  N         16.3640   15.0700   28.6740 N.3    71  ARG71      -0.1245
     63  CA        17.7000   14.6360   28.2390 C.3    71  ARG71       0.1563
     64  C         18.8330   15.0560   29.2040 C.2    71  ARG71       0.2260
     65  O         19.7180   14.2690   29.5160 O.2    71  ARG71      -0.2867
     66  CB        17.9750   15.0990   26.8020 C.3    71  ARG71       0.0307
     67  CG        19.4130   14.7740   26.3130 C.3    71  ARG71       0.0489
     68  CD        19.5240   15.0500   24.8150 C.3    71  ARG71       0.2205
     69  NE        20.8950   14.9670   24.2760 N.pl3  71  ARG71      -0.0865
     70  CZ        21.5440   13.8240   24.0690 C.cat  71  ARG71       0.5346
     71  NH1       20.9670   12.6690   24.3690 N.pl3  71  ARG71       0.1354
     72  NH2       22.7790   13.8220   23.5600 N.pl3  71  ARG71       0.1354
     73  N         16.7130   21.1820   11.3610 N.3   148  TYR148     -0.1241
     74  CA        17.2080   19.8440   11.0620 C.3   148  TYR148      0.1605
     75  C         16.0200   18.9980   10.5930 C.2   148  TYR148      0.2264
     76  O         15.0710   18.7410   11.3500 O.2   148  TYR148     -0.2867
     77  CB        17.8640   19.2470   12.3060 C.3   148  TYR148      0.0534
     78  CG        18.3820   17.8490   12.0810 C.ar  148  TYR148     -0.0201
     79  CD1       19.6390   17.6290   11.5170 C.ar  148  TYR148     -0.0009
     80  CD2       17.6250   16.7530   12.4670 C.ar  148  TYR148     -0.0009
     81  CE1       20.1250   16.3420   11.3290 C.ar  148  TYR148      0.0417
     82  CE2       18.1080   15.4450   12.2680 C.ar  148  TYR148      0.0417
     83  CZ        19.3500   15.2620   11.7060 C.ar  148  TYR148      0.1957
     84  OH        19.8470   13.9860   11.5450 O.3   148  TYR148     -0.2866
     85  N         20.2190   27.1110   12.5540 N.3   175  ASP175     -0.1239
     86  CA        21.6640   27.0960   12.7620 C.3   175  ASP175      0.1674
     87  C         22.3380   26.7380   11.4530 C.2   175  ASP175      0.2266
     88  O         21.6580   26.3310   10.4960 O.2   175  ASP175     -0.2867
     89  CB        22.0270   26.0520   13.8430 C.3   175  ASP175      0.1410
     90  CG        21.7520   24.6110   13.3950 C.2   175  ASP175      0.3668
     91  OD1       22.7090   23.9230   12.9120 O.co2 175  ASP175     -0.2456
     92  OD2       20.5760   24.1590   13.4540 O.co2 175  ASP175     -0.2456
     93  N         25.2290   24.6440   11.5600 N.3   177  ASP177     -0.1239
     94  CA        26.2000   23.5620   11.8200 C.3   177  ASP177      0.1674
     95  C         26.1980   22.6180   10.5960 C.2   177  ASP177      0.2266
     96  O         25.1330   22.1590   10.1810 O.2   177  ASP177     -0.2867
     97  CB        25.8520   22.7330   13.0740 C.3   177  ASP177      0.1410
     98  CG        25.8950   23.5600   14.3880 C.2   177  ASP177      0.3668
     99  OD1       25.6140   22.9770   15.4510 O.co2 177  ASP177     -0.2456
    100  OD2       26.2160   24.7490   14.3400 O.co2 177  ASP177     -0.2456
    101  N         27.1510   16.6190   12.1170 N.3   180  HIS180     -0.1227
    102  CA        27.3970   16.2520   13.5350 C.3   180  HIS180      0.1737
    103  C         27.9070   14.8410   13.6310 C.2   180  HIS180      0.2438
    104  O         27.3630   13.9510   12.9720 O.2   180  HIS180     -0.2733
    105  CB        26.1210   16.3630   14.3460 C.3   180  HIS180      0.0758
    106  CG        25.4650   17.6990   14.2040 C.ar  180  HIS180      0.0818
    107  ND1       25.9060   18.8020   14.8970 N.ar  180  HIS180     -0.2268
    108  CD2       24.4720   18.1260   13.3920 C.ar  180  HIS180      0.1154
    109  CE1       25.1890   19.8550   14.5400 C.ar  180  HIS180      0.1986
    110  NE2       24.2990   19.4660   13.6410 N.ar  180  HIS180     -0.2212
    111  N         28.9230   14.6350   14.4840 N.am  181  PRO181     -0.2718
    112  CA        29.5010   13.2900   14.6860 C.3   181  PRO181      0.1535
    113  C         28.5690   12.3740   15.4900 C.2   181  PRO181      0.2598
    114  O         27.9440   12.8120   16.4830 O.2   181  PRO181     -0.2715
    115  CB        30.8090   13.5840   15.4340 C.3   181  PRO181      0.0310
    116  CG        30.4990   14.8320   16.2150 C.3   181  PRO181      0.0237
    117  CD        29.6240   15.6630   15.2780 C.3   181  PRO181      0.0939
    118  N         28.4420   11.1270   15.0250 N.am  182  LEU182     -0.1978
    119  CA        27.6850   10.0920   15.7350 C.3   182  LEU182      0.1596
    120  C         28.6470    9.1300   16.4410 C.2   182  LEU182      0.2287
    121  O         29.8550    9.1270   16.1780 O.2   182  LEU182     -0.2864
    122  CB        26.6930    9.3600   14.8060 C.3   182  LEU182      0.0297
    123  CG        25.7330   10.2250   13.9630 C.3   182  LEU182      0.0022
    124  CD1       24.8200    9.3860   13.0840 C.3   182  LEU182      0.0001
    125  CD2       24.9030   11.1720   14.8140 C.3   182  LEU182      0.0001
    126  N         26.0180   12.8420   10.6530 N.3   188  THR188     -0.1218
    127  CA        24.7230   13.1610   10.0760 C.3   188  THR188      0.1862
    128  C         24.8530   14.5730    9.4920 C.2   188  THR188      0.2287
    129  O         25.5170   15.4270   10.0820 O.2   188  THR188     -0.2866
    130  CB        23.5500   13.0710   11.0910 C.3   188  THR188      0.1770
    131  OG1       22.3110   13.1460   10.3910 O.3   188  THR188     -0.2211
    132  CG2       23.5800   14.1960   12.1060 C.3   188  THR188      0.0375
    133  N         21.9430   21.1700    9.8580 N.3   191  THR191     -0.1218
    134  CA        21.0290   22.1570    9.2860 C.3   191  THR191      0.1862
    135  C         21.7600   23.0530    8.2710 C.2   191  THR191      0.2287
    136  O         21.1490   23.5010    7.2970 O.2   191  THR191     -0.2866
    137  CB        20.3760   23.0210   10.4090 C.3   191  THR191      0.1770
    138  OG1       19.7080   22.1570   11.3280 O.3   191  THR191     -0.2211
    139  CG2       19.3770   24.0110    9.8320 C.3   191  THR191      0.0375
    140  N         23.7710   29.8940   17.5830 N.3   211  LYS211     -0.1245
    141  CA        25.1950   30.2150   17.5670 C.3   211  LYS211      0.1561
    142  C         25.7630   30.0400   16.1360 C.2   211  LYS211      0.2260
    143  O         25.4210   29.0470   15.4560 O.2   211  LYS211     -0.2867
    144  CB        25.9470   29.2450   18.4990 C.3   211  LYS211      0.0271
    145  CG        25.3170   29.1320   19.9040 C.3   211  LYS211      0.0035
    146  CD        26.0420   28.0120   20.7110 C.3   211  LYS211      0.0206
    147  CE        25.6370   26.6220   20.2140 C.3   211  LYS211      0.1093
    148  NZ        26.2730   25.5110   21.0390 N.3   211  LYS211     -0.1314
    149  N         32.7590   23.3310   22.0250 N.3   236  ASP236     -0.1225
    150  CA        33.6850   22.4480   21.2990 C.3   236  ASP236      0.1805
    151  C         33.8700   22.8170   19.8240 C.2   236  ASP236      0.2597
    152  O         34.6300   22.1350   19.1220 O.2   236  ASP236     -0.2718
    153  CB        33.1900   20.9940   21.3690 C.3   236  ASP236      0.1424
    154  CG        31.9670   20.7470   20.4610 C.2   236  ASP236      0.3668
    155  OD1       31.1010   21.6360   20.4190 O.co2 236  ASP236     -0.2456
    156  OD2       31.8700   19.6830   19.8160 O.co2 236  ASP236     -0.2456
    157  N         33.1760   23.8480   19.3250 N.am  237  ARG237     -0.1979
    158  CA        33.2690   24.1750   17.9020 C.3   237  ARG237      0.1597
    159  C         33.7900   25.6160   17.7050 C.2   237  ARG237      0.2287
    160  O         33.1620   26.5690   18.1490 O.2   237  ARG237     -0.2864
    161  CB        31.8700   23.9910   17.2410 C.3   237  ARG237      0.0334
    162  CG        31.5330   22.5500   16.7910 C.3   237  ARG237      0.0492
    163  CD        30.3800   22.4850   15.7310 C.3   237  ARG237      0.2205
    164  NE        30.7730   22.0370   14.3660 N.pl3 237  ARG237     -0.0865
    165  CZ        30.1790   21.0390   13.7010 C.cat 237  ARG237      0.5346
    166  NH1       29.1480   20.4130   14.2490 N.pl3 237  ARG237      0.1354
    167  NH2       30.5850   20.6710   12.4720 N.pl3 237  ARG237      0.1354
    168  N         31.6030   28.0780   15.7860 N.3   240  THR240     -0.1218
    169  CA        30.2450   28.2260   16.2910 C.3   240  THR240      0.1862
    170  C         30.3040   28.8040   17.7040 C.2   240  THR240      0.2287
    171  O         29.9080   29.9320   17.9280 O.2   240  THR240     -0.2866
    172  CB        29.4710   26.8630   16.2460 C.3   240  THR240      0.1770
    173  OG1       29.3910   26.3720   14.8800 O.3   240  THR240     -0.2211
    174  CG2       28.0720   26.9990   16.8540 C.3   240  THR240      0.0375
@<TRIPOS>BOND
     1   136   135    2
     2   135   134    1
     3   134   133    1
     4   134   137    1
     5   128   127    1
     6   128   129    2
     7   139   137    1
     8   127   126    1
     9   127   130    1
    10    96    95    2
    11   131   130    1
    12   137   138    1
    13    88    87    2
    14    75    74    1
    15    75    76    2
    16    95    94    1
    17    74    73    1
    18    74    77    1
    19   130   132    1
    20    81    79   ar
    21    81    83   ar
    22    87    86    1
    23    79    78   ar
    24    84    83    1
    25    93    94    1
    26    83    82   ar
    27    94    97    1
    28    78    77    1
    29    78    80   ar
    30   101   102    1
    31    82    80   ar
    32   167   165    1
    33    85    86    1
    34    86    89    1
    35    91    90   ar
    36   104   103    2
    37    97    98    1
    38   124   123    1
    39   108   110   ar
    40   108   106   ar
    41    90    92   ar
    42    90    89    1
    43   102   103    1
    44   102   105    1
    45   103   111   am
    46   110   109   ar
    47   165   166    1
    48   165   164    2
    49   123   122    1
    50   123   125    1
    51   106   105    1
    52   106   107   ar
    53   100    98   ar
    54    50    49    1
    55   164   163    1
    56    98    99   ar
    57    61    59    1
    58   111   112    1
    59   111   117    1
    60   109   107   ar
    61   112   115    1
    62   112   113    1
    63   122   119    1
    64   173   172    1
    65   118   113   am
    66   118   119    1
    67   117   116    1
    68    49    46    1
    69    58    59    2
    70    58    57    1
    71    59    60    1
    72   115   116    1
    73   143   142    2
    74   113   114    2
    75   163   162    1
    76   119   120    1
    77   168   169    1
    78   142   141    1
    79    56    57    1
    80    56    55    1
    81   121   120    2
    82   172   169    1
    83   172   174    1
    84   169   170    1
    85    36    34   am
    86    48    47    2
    87    46    47    1
    88    46    45    1
    89    32    31    2
    90   162   161    1
    91    47    51   am
    92    45    39   am
    93    34    33    1
    94    34    35    2
    95   161   158    1
    96    33    30    1
    97    51    52    1
    98    52    55    1
    99    52    53    1
   100   141   140    1
   101   141   144    1
   102   170   171    2
   103   159   158    1
   104   159   160    2
   105    31    30    1
   106    31    37   am
   107   158   157    1
   108    43    42    2
   109    39    38    1
   110    39    40    2
   111    30    29    1
   112    54    53    2
   113    38    37    1
   114    38    41    1
   115   144   145    1
   116    42    44   am
   117    42    41    1
   118   152   151    2
   119   157   151   am
   120    22    20   ar
   121    29    25   am
   122   156   154   ar
   123   151   150    1
   124   145   146    1
   125   147   146    1
   126   147   148    1
   127   155   154   ar
   128   154   153    1
   129    20    21   ar
   130    20    19    1
   131    26    25    2
   132    25    24    1
   133    19    16    1
   134   150   153    1
   135   150   149    1
   136    28    27    1
   137    18    17    2
   138    24    27    1
   139    24    23    1
   140     7     6   ar
   141     8     6   ar
   142    17    16    1
   143    16    15    1
   144     6     5    1
   145    15    11   am
   146    72    70    1
   147     5     2    1
   148    70    69    2
   149    70    71    1
   150    69    68    1
   151    11    12    2
   152    11    10    1
   153     9    10    1
   154     9     3   am
   155     2     3    1
   156     2     1    1
   157    68    67    1
   158    13    10    1
   159    13    14    1
   160     3     4    2
   161    67    66    1
   162    66    63    1
   163    63    62    1
   164    63    64    1
   165    64    65    2
