@<TRIPOS>MOLECULE
tmp/2cfuA00.pdb
 158 148 0 0 0
SMALL
GASTEIGER

@<TRIPOS>ATOM
      1  N         38.0520   31.0530  178.2720 N.3   103  LEU103     -0.1245
      2  CA        38.2890   29.7980  177.5770 C.3   103  LEU103      0.1561
      3  C         39.7610   29.3510  177.6890 C.2   103  LEU103      0.2260
      4  O         40.0390   28.1610  177.9140 O.2   103  LEU103     -0.2867
      5  CB        37.8780   29.9210  176.0980 C.3   103  LEU103      0.0270
      6  CG        37.8210   28.6180  175.2930 C.3   103  LEU103      0.0019
      7  CD1       36.5760   27.7290  175.6820 C.3   103  LEU103      0.0001
      8  CD2       37.8160   28.9110  173.7950 C.3   103  LEU103      0.0001
      9  N         40.1100   36.4720  176.2800 N.3   122  THR122     -0.1218
     10  CA        39.2240   36.9040  175.1790 C.3   122  THR122      0.1862
     11  C         38.7630   38.3860  175.2390 C.2   122  THR122      0.2287
     12  O         38.4580   38.9770  174.2070 O.2   122  THR122     -0.2866
     13  CB        37.9560   36.0330  175.1520 C.3   122  THR122      0.1770
     14  OG1       38.2850   34.6630  175.3950 O.3   122  THR122     -0.2211
     15  CG2       37.1630   36.1600  173.7770 C.3   122  THR122      0.0375
     16  N         44.6240   33.9740  167.6050 N.3   152  HIS152     -0.1226
     17  CA        43.1960   33.6950  167.8980 C.3   152  HIS152      0.1752
     18  C         42.6720   34.6340  168.9780 C.2   152  HIS152      0.2596
     19  O         43.3860   34.9550  169.9490 O.2   152  HIS152     -0.2718
     20  CB        42.8880   32.2280  168.2780 C.3   152  HIS152      0.0759
     21  CG        42.9200   31.2750  167.1220 C.ar  152  HIS152      0.0818
     22  ND1       43.2040   29.9300  167.2730 N.ar  152  HIS152     -0.2268
     23  CD2       42.7650   31.4790  165.7880 C.ar  152  HIS152      0.1154
     24  CE1       43.2040   29.3480  166.0850 C.ar  152  HIS152      0.1986
     25  NE2       42.9420   30.2670  165.1680 N.ar  152  HIS152     -0.2212
     26  N         41.4210   35.0700  168.8040 N.am  153  ALA153     -0.1966
     27  CA        40.7940   36.0110  169.7150 C.3   153  ALA153      0.1728
     28  C         40.7610   35.6140  171.1980 C.2   153  ALA153      0.2616
     29  O         40.7970   36.4920  172.0550 O.2   153  ALA153     -0.2715
     30  CB        39.4140   36.3960  169.2230 C.3   153  ALA153      0.0334
     31  N         40.7270   34.3110  171.5070 N.am  154  ASP154     -0.1971
     32  CA        40.7770   33.9020  172.9200 C.3   154  ASP154      0.1709
     33  C         42.1990   34.0200  173.5000 C.2   154  ASP154      0.2293
     34  O         42.4290   33.6690  174.6720 O.2   154  ASP154     -0.2864
     35  CB        40.1700   32.5210  173.1550 C.3   154  ASP154      0.1436
     36  CG        40.8300   31.4340  172.3380 C.2   154  ASP154      0.3671
     37  OD1       41.0290   31.5950  171.1240 O.co2 154  ASP154     -0.2456
     38  OD2       41.0870   30.3720  172.9070 O.co2 154  ASP154     -0.2456
     39  N         27.6330   25.3740  168.0820 N.3   200  GLN200     -0.1231
     40  CA        28.8620   24.8040  168.6190 C.3   200  GLN200      0.1698
     41  C         29.0960   25.2370  170.0650 C.2   200  GLN200      0.2592
     42  O         29.4880   24.4310  170.9010 O.2   200  GLN200     -0.2718
     43  CB        30.0380   25.1930  167.6990 C.3   200  GLN200      0.0381
     44  CG        31.3990   24.7660  168.1790 C.3   200  GLN200      0.0905
     45  CD        32.5250   25.2360  167.2530 C.2   200  GLN200      0.2608
     46  OE1       32.3420   25.3410  166.0520 O.2   200  GLN200     -0.2717
     47  NE2       33.6980   25.4960  167.8210 N.am  200  GLN200     -0.0878
     48  N         28.8300   26.5040  170.3420 N.am  201  TYR201     -0.1976
     49  CA        29.0220   27.0740  171.6890 C.3   201  TYR201      0.1639
     50  C         27.7760   26.9180  172.5630 C.2   201  TYR201      0.2290
     51  O         27.8210   27.1650  173.7860 O.2   201  TYR201     -0.2864
     52  CB        29.5160   28.5440  171.5620 C.3   201  TYR201      0.0560
     53  CG        30.9950   28.6120  171.1870 C.ar  201  TYR201     -0.0198
     54  CD1       31.4200   28.5050  169.8540 C.ar  201  TYR201     -0.0009
     55  CD2       31.9800   28.7060  172.1810 C.ar  201  TYR201     -0.0009
     56  CE1       32.7990   28.5230  169.5190 C.ar  201  TYR201      0.0417
     57  CE2       33.3390   28.7260  171.8570 C.ar  201  TYR201      0.0417
     58  CZ        33.7390   28.6290  170.5250 C.ar  201  TYR201      0.1957
     59  OH        35.1020   28.6210  170.2240 O.3   201  TYR201     -0.2866
     60  N         38.3010   22.7450  175.7180 N.3   217  ILE217     -0.1245
     61  CA        39.5670   23.4600  175.9990 C.3   217  ILE217      0.1561
     62  C         39.4060   24.4800  177.1080 C.2   217  ILE217      0.2260
     63  O         40.3730   25.0970  177.5280 O.2   217  ILE217     -0.2867
     64  CB        40.1640   24.0990  174.7140 C.3   217  ILE217      0.0252
     65  CG1       39.1700   25.0820  174.0660 C.3   217  ILE217      0.0019
     66  CG2       40.6450   22.9570  173.7200 C.3   217  ILE217      0.0019
     67  CD1       39.7070   25.7660  172.7890 C.3   217  ILE217      0.0001
     68  N         33.4240   30.6190  176.4610 N.3   221  LEU221     -0.1245
     69  CA        34.0760   31.8390  176.0430 C.3   221  LEU221      0.1561
     70  C         33.4920   33.0430  176.7880 C.2   221  LEU221      0.2260
     71  O         32.2630   33.1600  176.9390 O.2   221  LEU221     -0.2867
     72  CB        33.9200   31.9580  174.5050 C.3   221  LEU221      0.0270
     73  CG        34.8040   32.8060  173.6270 C.3   221  LEU221      0.0019
     74  CD1       36.2620   32.4250  173.7210 C.3   221  LEU221      0.0001
     75  CD2       34.3110   32.5880  172.1680 C.3   221  LEU221      0.0001
     76  N         36.1500   43.1170  172.1330 N.3   226  LEU226     -0.1245
     77  CA        37.3550   42.4700  171.6230 C.3   226  LEU226      0.1561
     78  C         38.4280   43.5290  171.3950 C.2   226  LEU226      0.2260
     79  O         38.1970   44.4900  170.6800 O.2   226  LEU226     -0.2867
     80  CB        37.0590   41.7490  170.3040 C.3   226  LEU226      0.0270
     81  CG        38.2340   40.9630  169.7130 C.3   226  LEU226      0.0019
     82  CD1       38.5920   39.8320  170.6470 C.3   226  LEU226      0.0001
     83  CD2       37.9410   40.4630  168.2830 C.3   226  LEU226      0.0001
     84  N         47.4550   24.7160  164.4290 N.3   258  GLU258     -0.1245
     85  CA        46.1900   25.1620  165.0200 C.3   258  GLU258      0.1567
     86  C         45.8030   26.5790  164.5320 C.2   258  GLU258      0.2260
     87  O         44.6220   26.9290  164.4850 O.2   258  GLU258     -0.2867
     88  CB        46.3060   25.0680  166.5680 C.3   258  GLU258      0.0388
     89  CG        45.0430   25.3320  167.3590 C.3   258  GLU258      0.1160
     90  CD        44.8990   26.7820  167.7870 C.2   258  GLU258      0.3649
     91  OE1       45.8000   27.5920  167.4840 O.co2 258  GLU258     -0.2457
     92  OE2       43.8910   27.0970  168.4680 O.co2 258  GLU258     -0.2457
     93  N         48.9440   26.2020  171.4300 N.3   277  GLU277     -0.1245
     94  CA        47.7160   25.4050  171.3360 C.3   277  GLU277      0.1567
     95  C         47.9700   24.1940  170.4210 C.2   277  GLU277      0.2260
     96  O         47.0520   23.5960  169.8590 O.2   277  GLU277     -0.2867
     97  CB        46.5150   26.2480  170.8950 C.3   277  GLU277      0.0388
     98  CG        45.1600   25.6210  171.2570 C.3   277  GLU277      0.1160
     99  CD        44.0560   26.6300  171.3270 C.2   277  GLU277      0.3649
    100  OE1       44.3470   27.8420  171.5350 O.co2 277  GLU277     -0.2457
    101  OE2       42.8850   26.2330  171.2380 O.co2 277  GLU277     -0.2457
    102  N         42.3620   18.2880  169.1910 N.3   284  HIS284     -0.1226
    103  CA        41.8850   19.5990  168.7570 C.3   284  HIS284      0.1752
    104  C         41.2070   19.4490  167.3740 C.2   284  HIS284      0.2596
    105  O         41.1910   18.3820  166.8120 O.2   284  HIS284     -0.2718
    106  CB        43.0660   20.5910  168.6740 C.3   284  HIS284      0.0759
    107  CG        42.6800   22.0180  168.9020 C.ar  284  HIS284      0.0818
    108  ND1       42.0100   22.7730  167.9630 N.ar  284  HIS284     -0.2268
    109  CD2       42.9330   22.8480  169.9410 C.ar  284  HIS284      0.1154
    110  CE1       41.8420   24.0050  168.4240 C.ar  284  HIS284      0.1986
    111  NE2       42.3720   24.0680  169.6350 N.ar  284  HIS284     -0.2212
    112  N         40.6660   20.5440  166.8480 N.am  285  ASN285     -0.1974
    113  CA        39.9970   20.5620  165.5500 C.3   285  ASN285      0.1688
    114  C         40.9310   20.6700  164.3430 C.2   285  ASN285      0.2292
    115  O         41.7900   21.5550  164.2910 O.2   285  ASN285     -0.2864
    116  CB        39.1250   21.8170  165.4790 C.3   285  ASN285      0.1181
    117  CG        37.8580   21.7090  166.2880 C.2   285  ASN285      0.2629
    118  OD1       37.1040   20.7610  166.1560 O.2   285  ASN285     -0.2716
    119  ND2       37.5650   22.7480  167.0500 N.am  285  ASN285     -0.0877
    120  N         36.8520   23.1920  162.4190 N.3   288  THR288     -0.1218
    121  CA        35.9300   23.6830  163.4400 C.3   288  THR288      0.1862
    122  C         34.5680   23.6820  162.7910 C.2   288  THR288      0.2287
    123  O         34.3810   24.2180  161.6860 O.2   288  THR288     -0.2866
    124  CB        36.3160   25.0790  164.0200 C.3   288  THR288      0.1770
    125  OG1       35.5140   25.3530  165.1740 O.3   288  THR288     -0.2211
    126  CG2       36.1350   26.2060  162.9990 C.3   288  THR288      0.0375
    127  N         31.8520   25.2700  163.2890 N.3   290  ARG290     -0.1245
    128  CA        31.1920   26.5440  163.0280 C.3   290  ARG290      0.1563
    129  C         31.5110   26.9480  161.5820 C.2   290  ARG290      0.2260
    130  O         30.7870   27.7530  160.9800 O.2   290  ARG290     -0.2867
    131  CB        31.6710   27.6500  163.9810 C.3   290  ARG290      0.0307
    132  CG        32.9470   28.3450  163.4980 C.3   290  ARG290      0.0489
    133  CD        33.3040   29.4710  164.3730 C.3   290  ARG290      0.2205
    134  NE        33.8990   28.9650  165.5820 N.pl3 290  ARG290     -0.0865
    135  CZ        35.1900   29.0280  165.8480 C.cat 290  ARG290      0.5346
    136  NH1       36.0180   29.6510  165.0010 N.pl3 290  ARG290      0.1354
    137  NH2       35.6320   28.5120  166.9870 N.pl3 290  ARG290      0.1354
    138  N         42.5020   22.3870  158.5190 N.3   295  ARG295     -0.1245
    139  CA        43.8550   22.5340  159.0260 C.3   295  ARG295      0.1563
    140  C         44.7440   21.3760  158.5730 C.2   295  ARG295      0.2260
    141  O         44.2530   20.3550  158.1260 O.2   295  ARG295     -0.2867
    142  CB        43.8110   22.6790  160.5380 C.3   295  ARG295      0.0307
    143  CG        43.1530   24.0200  160.9570 C.3   295  ARG295      0.0489
    144  CD        42.9370   24.0500  162.4390 C.3   295  ARG295      0.2205
    145  NE        42.4110   25.3430  162.8280 N.pl3 295  ARG295     -0.0865
    146  CZ        41.8640   25.6160  164.0060 C.cat 295  ARG295      0.5346
    147  NH1       41.7200   24.6620  164.9320 N.pl3 295  ARG295      0.1354
    148  NH2       41.4340   26.8520  164.2430 N.pl3 295  ARG295      0.1354
    149  N         37.2140   18.4300  171.8880 N.3   383  HIS383     -0.1241
    150  CA        37.1560   19.6510  171.0920 C.3   383  HIS383      0.1621
    151  C         37.0220   19.2790  169.6140 C.2   383  HIS383      0.2264
    152  O         35.9790   19.5480  168.9720 O.2   383  HIS383     -0.2867
    153  CB        38.3750   20.5020  171.4080 C.3   383  HIS383      0.0745
    154  CG        38.2930   21.8990  170.8690 C.ar  383  HIS383      0.0817
    155  ND1       37.2400   22.7460  171.1510 N.ar  383  HIS383     -0.2268
    156  CD2       39.1430   22.6070  170.0880 C.ar  383  HIS383      0.1154
    157  CE1       37.4470   23.9160  170.5630 C.ar  383  HIS383      0.1986
    158  NE2       38.5950   23.8620  169.9250 N.ar  383  HIS383     -0.2212
@<TRIPOS>BOND
     1   141   140    2
     2   138   139    1
     3   140   139    1
     4   139   142    1
     5   142   143    1
     6   143   144    1
     7   130   129    2
     8   129   128    1
     9   123   122    2
    10   120   121    1
    11   144   145    1
    12   122   121    1
    13   145   146    2
    14   126   124    1
    15   128   127    1
    16   128   131    1
    17   121   124    1
    18   132   131    1
    19   132   133    1
    20   146   148    1
    21   146   147    1
    22   124   125    1
    23   115   114    2
    24   114   113    1
    25   133   134    1
    26    84    85    1
    27    87    86    2
    28    86    85    1
    29   136   135    1
    30    85    88    1
    31    25    23   ar
    32    25    24   ar
    33   116   113    1
    34   116   117    1
    35   113   112    1
    36   134   135    2
    37    23    21   ar
    38   135   137    1
    39    46    45    2
    40    24    22   ar
    41   118   117    2
    42   117   119   am
    43    88    89    1
    44   105   104    2
    45   112   104   am
    46    21    22   ar
    47    21    20    1
    48    45    47   am
    49    45    44    1
    50    89    90    1
    51   104   103    1
    52    91    90   ar
    53    16    17    1
    54    43    44    1
    55    43    40    1
    56    90    92   ar
    57    17    20    1
    58    17    18    1
    59   108   110   ar
    60   108   107   ar
    61    39    40    1
    62    83    81    1
    63   110   111   ar
    64    40    41    1
    65   106   103    1
    66   106   107    1
    67   103   102    1
    68    26    18   am
    69    26    27    1
    70   107   109   ar
    71   152   151    2
    72    18    19    2
    73    30    27    1
    74    56    54   ar
    75    56    58   ar
    76   151   150    1
    77   111   109   ar
    78    81    80    1
    79    81    82    1
    80    27    28    1
    81    54    53   ar
    82    96    95    2
    83   158   156   ar
    84   158   157   ar
    85    41    48   am
    86    41    42    2
    87   156   154   ar
    88    59    58    1
    89    80    77    1
    90    48    49    1
    91    95    94    1
    92    58    57   ar
    93   157   155   ar
    94    79    78    2
    95   154   155   ar
    96   154   153    1
    97    97    98    1
    98    97    94    1
    99   150   153    1
   100   150   149    1
   101    37    36   ar
   102    53    52    1
   103    53    55   ar
   104    28    31   am
   105    28    29    2
   106   101    99   ar
   107    98    99    1
   108    99   100   ar
   109    94    93    1
   110    78    77    1
   111    31    32    1
   112    52    49    1
   113    77    76    1
   114    49    50    1
   115    57    55   ar
   116    75    73    1
   117    36    38   ar
   118    36    35    1
   119    50    51    2
   120    67    65    1
   121    32    35    1
   122    32    33    1
   123    33    34    2
   124    73    74    1
   125    73    72    1
   126    66    64    1
   127    15    13    1
   128     8     6    1
   129    65    64    1
   130    12    11    2
   131    72    69    1
   132    64    61    1
   133    13    10    1
   134    13    14    1
   135    10    11    1
   136    10     9    1
   137     6     7    1
   138     6     5    1
   139    60    61    1
   140    61    62    1
   141    69    68    1
   142    69    70    1
   143     5     2    1
   144    70    71    2
   145    62    63    2
   146     2     3    1
   147     2     1    1
   148     3     4    2
