@<TRIPOS>MOLECULE
tmp/2cfuA03.pdb
 92 85 0 0 0
SMALL
GASTEIGER

@<TRIPOS>ATOM
      1  N         37.6820   45.7770  151.5130 N.3   517  PHE517     -0.1241
      2  CA        36.9140   45.8970  150.2840 C.3   517  PHE517      0.1605
      3  C         36.4450   44.5720  149.7100 C.2   517  PHE517      0.2264
      4  O         35.4010   44.5330  149.0510 O.2   517  PHE517     -0.2867
      5  CB        37.5630   46.8260  149.2640 C.3   517  PHE517      0.0534
      6  CG        37.3860   48.2740  149.6200 C.ar  517  PHE517     -0.0203
      7  CD1       36.2300   48.9560  149.2400 C.ar  517  PHE517     -0.0042
      8  CD2       38.3280   48.9300  150.4220 C.ar  517  PHE517     -0.0042
      9  CE1       36.0340   50.2960  149.6010 C.ar  517  PHE517     -0.0003
     10  CE2       38.1400   50.2590  150.7930 C.ar  517  PHE517     -0.0003
     11  CZ        36.9960   50.9460  150.3760 C.ar  517  PHE517     -0.0000
     12  N         33.3520   44.1740  151.5230 N.3   520  LEU520     -0.1245
     13  CA        32.3050   45.0120  150.9690 C.3   520  LEU520      0.1561
     14  C         31.7450   44.3860  149.6660 C.2   520  LEU520      0.2260
     15  O         30.5360   44.4450  149.4260 O.2   520  LEU520     -0.2867
     16  CB        32.7760   46.4600  150.7640 C.3   520  LEU520      0.0270
     17  CG        33.1300   47.2110  152.0890 C.3   520  LEU520      0.0019
     18  CD1       33.6680   48.6130  151.7950 C.3   520  LEU520      0.0001
     19  CD2       31.9560   47.2920  153.1030 C.3   520  LEU520      0.0001
     20  N         38.2390   56.2050  157.7020 N.3   578  LEU578     -0.1245
     21  CA        37.3710   55.2410  157.0750 C.3   578  LEU578      0.1561
     22  C         36.8940   54.2740  158.1690 C.2   578  LEU578      0.2260
     23  O         35.7380   53.8820  158.1900 O.2   578  LEU578     -0.2867
     24  CB        38.0850   54.5070  155.9300 C.3   578  LEU578      0.0270
     25  CG        37.3660   53.3020  155.2930 C.3   578  LEU578      0.0019
     26  CD1       35.9530   53.6410  154.7720 C.3   578  LEU578      0.0001
     27  CD2       38.2170   52.7090  154.1910 C.3   578  LEU578      0.0001
     28  N         34.1050   55.7870  160.1480 N.3   581  LEU581     -0.1231
     29  CA        32.8550   55.8200  159.3840 C.3   581  LEU581      0.1693
     30  C         32.0740   54.5230  159.4870 C.2   581  LEU581      0.2591
     31  O         30.8380   54.5320  159.6910 O.2   581  LEU581     -0.2718
     32  CB        33.1340   56.0400  157.9100 C.3   581  LEU581      0.0284
     33  CG        32.9620   57.4040  157.3570 C.3   581  LEU581      0.0019
     34  CD1       33.4450   57.3880  155.8770 C.3   581  LEU581      0.0001
     35  CD2       31.4690   57.7970  157.5050 C.3   581  LEU581      0.0001
     36  N         32.7900   53.4190  159.2980 N.am  582  LEU582     -0.1980
     37  CA        32.2140   52.0750  159.3290 C.3   582  LEU582      0.1596
     38  C         31.7170   51.7070  160.7140 C.2   582  LEU582      0.2287
     39  O         30.7510   50.9530  160.8460 O.2   582  LEU582     -0.2864
     40  CB        33.2530   51.0450  158.8410 C.3   582  LEU582      0.0297
     41  CG        33.6940   51.2490  157.3830 C.3   582  LEU582      0.0022
     42  CD1       35.0010   50.5070  157.0480 C.3   582  LEU582      0.0001
     43  CD2       32.5960   50.8680  156.4160 C.3   582  LEU582      0.0001
     44  N         30.4790   53.8530  162.7070 N.3   584  LYS584     -0.1245
     45  CA        29.4610   54.8740  162.9920 C.3   584  LYS584      0.1561
     46  C         29.9070   55.8780  164.0700 C.2   584  LYS584      0.2260
     47  O         29.0720   56.4630  164.7460 O.2   584  LYS584     -0.2867
     48  CB        28.1020   54.2270  163.3640 C.3   584  LYS584      0.0271
     49  CG        27.6430   53.0440  162.4830 C.3   584  LYS584      0.0035
     50  CD        27.4730   53.4130  161.0090 C.3   584  LYS584      0.0206
     51  CE        27.1020   52.1810  160.1670 C.3   584  LYS584      0.1093
     52  NZ        26.9730   52.4860  158.6940 N.3   584  LYS584     -0.1314
     53  N         29.8060   60.6650  157.4290 N.3   588  ALA588     -0.1245
     54  CA        30.5470   61.0410  156.2320 C.3   588  ALA588      0.1562
     55  C         30.4050   62.5410  156.0370 C.2   588  ALA588      0.2260
     56  O         31.3570   63.1780  155.6570 O.2   588  ALA588     -0.2867
     57  CB        30.0610   60.2840  155.0140 C.3   588  ALA588      0.0290
     58  N         30.8730   56.8040  144.7710 N.3   606  LEU606     -0.1245
     59  CA        31.1170   56.0170  145.9780 C.3   606  LEU606      0.1561
     60  C         29.8240   55.8080  146.7710 C.2   606  LEU606      0.2260
     61  O         29.6090   54.7280  147.3290 O.2   606  LEU606     -0.2867
     62  CB        32.2410   56.6230  146.8300 C.3   606  LEU606      0.0270
     63  CG        32.8230   55.8070  147.9960 C.3   606  LEU606      0.0019
     64  CD1       33.1720   54.3600  147.6220 C.3   606  LEU606      0.0001
     65  CD2       34.0450   56.5130  148.5270 C.3   606  LEU606      0.0001
     66  N         27.7950   53.2060  144.9410 N.3   609  LEU609     -0.1231
     67  CA        28.3200   51.9000  145.2680 C.3   609  LEU609      0.1693
     68  C         27.8510   51.4870  146.6650 C.2   609  LEU609      0.2592
     69  O         27.3150   50.3710  146.8350 O.2   609  LEU609     -0.2718
     70  CB        29.8360   51.8740  145.1910 C.3   609  LEU609      0.0284
     71  CG        30.5400   50.5780  145.6280 C.3   609  LEU609      0.0019
     72  CD1       30.0760   49.3280  144.8190 C.3   609  LEU609      0.0001
     73  CD2       32.0220   50.7970  145.5370 C.3   609  LEU609      0.0001
     74  N         28.0150   52.3830  147.6510 N.am  610  PHE610     -0.1976
     75  CA        27.5660   52.0840  149.0210 C.3   610  PHE610      0.1639
     76  C         26.0870   51.6850  149.0780 C.2   610  PHE610      0.2290
     77  O         25.7360   50.7620  149.8120 O.2   610  PHE610     -0.2864
     78  CB        27.8750   53.2340  149.9930 C.3   610  PHE610      0.0560
     79  CG        27.2660   53.0590  151.3770 C.ar  610  PHE610     -0.0200
     80  CD1       27.9010   52.2650  152.3470 C.ar  610  PHE610     -0.0042
     81  CD2       26.0630   53.7190  151.7220 C.ar  610  PHE610     -0.0042
     82  CE1       27.3260   52.1060  153.6420 C.ar  610  PHE610     -0.0003
     83  CE2       25.4910   53.5790  153.0070 C.ar  610  PHE610     -0.0003
     84  CZ        26.1210   52.7710  153.9600 C.ar  610  PHE610     -0.0000
     85  N         25.0660   48.0060  148.6660 N.3   613  LEU613     -0.1245
     86  CA        25.4980   47.0760  149.7070 C.3   613  LEU613      0.1561
     87  C         24.3390   46.5460  150.5250 C.2   613  LEU613      0.2260
     88  O         23.5720   47.3200  151.0840 O.2   613  LEU613     -0.2867
     89  CB        26.5810   47.7280  150.5820 C.3   613  LEU613      0.0270
     90  CG        28.0590   47.6420  150.1610 C.3   613  LEU613      0.0019
     91  CD1       28.3160   47.4830  148.6710 C.3   613  LEU613      0.0001
     92  CD2       28.9390   48.7730  150.7760 C.3   613  LEU613      0.0001
@<TRIPOS>BOND
     1    58    59    1
     2    72    71    1
     3    66    67    1
     4    70    67    1
     5    70    71    1
     6    67    68    1
     7    73    71    1
     8    59    60    1
     9    59    62    1
    10    68    69    2
    11    68    74   am
    12    60    61    2
    13    62    63    1
    14    64    63    1
    15    74    75    1
    16    63    65    1
    17    85    86    1
    18    91    90    1
    19    75    76    1
    20    75    78    1
    21     4     3    2
    22    76    77    2
    23     7     9   ar
    24     7     6   ar
    25     5     6    1
    26     5     2    1
    27    15    14    2
    28     9    11   ar
    29     6     8   ar
    30    14    13    1
    31    86    87    1
    32    86    89    1
    33     3     2    1
    34    78    79    1
    35    90    89    1
    36    90    92    1
    37     2     1    1
    38    11    10   ar
    39     8    10   ar
    40    87    88    2
    41    16    13    1
    42    16    17    1
    43    13    12    1
    44    79    81   ar
    45    79    80   ar
    46    81    83   ar
    47    18    17    1
    48    17    19    1
    49    80    82   ar
    50    83    84   ar
    51    82    84   ar
    52    27    25    1
    53    26    25    1
    54    57    54    1
    55    25    24    1
    56    56    55    2
    57    34    33    1
    58    24    21    1
    59    55    54    1
    60    54    53    1
    61    43    41    1
    62    42    41    1
    63    21    20    1
    64    21    22    1
    65    33    35    1
    66    33    32    1
    67    41    40    1
    68    32    29    1
    69    22    23    2
    70    52    51    1
    71    40    37    1
    72    36    37    1
    73    36    30   am
    74    37    38    1
    75    29    30    1
    76    29    28    1
    77    30    31    2
    78    51    50    1
    79    38    39    2
    80    50    49    1
    81    49    48    1
    82    44    45    1
    83    45    48    1
    84    45    46    1
    85    46    47    2
