@<TRIPOS>MOLECULE
tmp/2cfwA00.pdb
 159 156 0 0 0
SMALL
GASTEIGER

@<TRIPOS>ATOM
      1  N         14.7500    5.2910   27.8570 N.3    94  GLU94      -0.1245
      2  CA        14.0800    6.2900   27.0320 C.3    94  GLU94       0.1567
      3  C         14.7520    6.4050   25.6630 C.2    94  GLU94       0.2260
      4  O         14.0700    6.4870   24.6330 O.2    94  GLU94      -0.2867
      5  CB        14.1290    7.6380   27.7460 C.3    94  GLU94       0.0388
      6  CG        13.0060    8.5990   27.4190 C.3    94  GLU94       0.1160
      7  CD        13.0260    9.8200   28.3270 C.2    94  GLU94       0.3649
      8  OE1       13.7000   10.8030   27.9550 O.co2  94  GLU94      -0.2457
      9  OE2       12.3940    9.7900   29.4140 O.co2  94  GLU94      -0.2457
     10  N         13.8290    4.1350   22.5100 N.3    97  PHE97      -0.1241
     11  CA        12.4830    4.1700   21.8880 C.3    97  PHE97       0.1605
     12  C         12.4700    4.4220   20.3780 C.2    97  PHE97       0.2264
     13  O         11.5180    4.0420   19.6860 O.2    97  PHE97      -0.2867
     14  CB        11.5960    5.1890   22.5970 C.3    97  PHE97       0.0534
     15  CG        11.1580    4.7690   23.9820 C.ar   97  PHE97      -0.0203
     16  CD1       11.4220    3.4920   24.4810 C.ar   97  PHE97      -0.0042
     17  CD2       10.4740    5.6630   24.7840 C.ar   97  PHE97      -0.0042
     18  CE1       11.0040    3.1310   25.7440 C.ar   97  PHE97      -0.0003
     19  CE2       10.0640    5.3030   26.0410 C.ar   97  PHE97      -0.0003
     20  CZ        10.3300    4.0300   26.5230 C.ar   97  PHE97      -0.0000
     21  N          6.8220    0.6480   17.1660 N.3   127  ALA127     -0.1231
     22  CA         6.7410    0.6500   18.6130 C.3   127  ALA127      0.1679
     23  C          7.8630   -0.2200   19.1870 C.2   127  ALA127      0.2434
     24  O          8.0670   -1.3420   18.7420 O.2   127  ALA127     -0.2733
     25  CB         5.3950    0.1470   19.0530 C.3   127  ALA127      0.0304
     26  N          8.5950    0.3170   20.1470 N.am  128  PRO128     -0.2718
     27  CA         9.6690   -0.4000   20.8400 C.3   128  PRO128      0.1535
     28  C          9.1590   -1.1660   22.0550 C.2   128  PRO128      0.2598
     29  O          9.0040   -0.6370   23.1520 O.2   128  PRO128     -0.2715
     30  CB        10.5790    0.7250   21.2780 C.3   128  PRO128      0.0310
     31  CG         9.6090    1.8650   21.5840 C.3   128  PRO128      0.0237
     32  CD         8.4650    1.7080   20.6290 C.3   128  PRO128      0.0939
     33  N          8.9500   -2.4550   21.8680 N.am  129  LEU129     -0.1978
     34  CA         8.1080   -3.2130   22.7630 C.3   129  LEU129      0.1596
     35  C          8.9440   -4.1970   23.5370 C.2   129  LEU129      0.2287
     36  O          9.8390   -4.8180   22.9680 O.2   129  LEU129     -0.2864
     37  CB         7.0660   -3.9620   21.9390 C.3   129  LEU129      0.0297
     38  CG         6.1630   -2.9860   21.1640 C.3   129  LEU129      0.0022
     39  CD1        5.3100   -3.7330   20.1330 C.3   129  LEU129      0.0001
     40  CD2        5.3380   -2.1560   22.1220 C.3   129  LEU129      0.0001
     41  N         -2.0320    4.4500   15.2230 N.3   160  TRP160     -0.1241
     42  CA        -2.7550    3.3070   15.7890 C.3   160  TRP160      0.1605
     43  C         -3.9360    2.8630   14.9120 C.2   160  TRP160      0.2264
     44  O         -4.3730    1.7100   14.9800 O.2   160  TRP160     -0.2867
     45  CB        -3.2410    3.6440   17.2070 C.3   160  TRP160      0.0550
     46  CG        -2.1670    4.2430   18.0190 C.ar  160  TRP160      0.0003
     47  CD1       -1.9950    5.5620   18.3270 C.ar  160  TRP160      0.0946
     48  CD2       -1.0720    3.5550   18.5860 C.ar  160  TRP160      0.0152
     49  NE1       -0.8550    5.7230   19.0780 N.ar  160  TRP160     -0.2442
     50  CE2       -0.2700    4.5020   19.2480 C.ar  160  TRP160      0.0810
     51  CE3       -0.6800    2.2120   18.6080 C.ar  160  TRP160      0.0012
     52  CZ2        0.9020    4.1550   19.9100 C.ar  160  TRP160      0.0191
     53  CZ3        0.4830    1.8660   19.2760 C.ar  160  TRP160      0.0001
     54  CH2        1.2530    2.8360   19.9170 C.ar  160  TRP160      0.0015
     55  N         -1.5950   -9.8220   26.7170 N.3   276  TYR276     -0.1241
     56  CA        -2.4660   -9.9150   25.5440 C.3   276  TYR276      0.1605
     57  C         -2.8680  -11.3640   25.2600 C.2   276  TYR276      0.2264
     58  O         -2.0870  -12.3040   25.4500 O.2   276  TYR276     -0.2867
     59  CB        -1.8180   -9.2430   24.3170 C.3   276  TYR276      0.0534
     60  CG        -1.9560   -7.7460   24.3830 C.ar  276  TYR276     -0.0201
     61  CD1       -1.1200   -7.0030   25.1970 C.ar  276  TYR276     -0.0009
     62  CD2       -2.9670   -7.0810   23.6840 C.ar  276  TYR276     -0.0009
     63  CE1       -1.2670   -5.6560   25.3130 C.ar  276  TYR276      0.0417
     64  CE2       -3.1130   -5.7160   23.7860 C.ar  276  TYR276      0.0417
     65  CZ        -2.2630   -5.0150   24.6090 C.ar  276  TYR276      0.1957
     66  OH        -2.3730   -3.6650   24.7600 O.3   276  TYR276     -0.2866
     67  N          3.1590   -6.2170   28.6580 N.3   288  TYR288     -0.1241
     68  CA         3.8960   -5.0210   29.0040 C.3   288  TYR288      0.1605
     69  C          3.8110   -4.8250   30.5060 C.2   288  TYR288      0.2264
     70  O          2.7190   -4.6500   31.0380 O.2   288  TYR288     -0.2867
     71  CB         3.3510   -3.8470   28.1830 C.3   288  TYR288      0.0534
     72  CG         3.4620   -4.1720   26.7040 C.ar  288  TYR288     -0.0201
     73  CD1        4.6820   -4.5510   26.1620 C.ar  288  TYR288     -0.0009
     74  CD2        2.3530   -4.1540   25.8680 C.ar  288  TYR288     -0.0009
     75  CE1        4.8130   -4.8890   24.8320 C.ar  288  TYR288      0.0417
     76  CE2        2.4760   -4.4720   24.5180 C.ar  288  TYR288      0.0417
     77  CZ         3.7180   -4.8550   24.0110 C.ar  288  TYR288      0.1957
     78  OH         3.8910   -5.2000   22.6770 O.3   288  TYR288     -0.2866
     79  N          4.2980   -2.2880   32.6310 N.3   290  ASP290     -0.1239
     80  CA         4.4730   -0.8450   32.5010 C.3   290  ASP290      0.1674
     81  C          5.3410   -0.3060   33.6510 C.2   290  ASP290      0.2266
     82  O          6.2430    0.4890   33.4190 O.2   290  ASP290     -0.2867
     83  CB         3.1090   -0.1580   32.3900 C.3   290  ASP290      0.1410
     84  CG         2.3780   -0.4870   31.0820 C.2   290  ASP290      0.3668
     85  OD1        1.1390   -0.3060   31.0300 O.co2 290  ASP290     -0.2456
     86  OD2        2.9410   -0.9240   30.0480 O.co2 290  ASP290     -0.2456
     87  N          9.0640   -0.5340   32.0090 N.3   294  TYR294     -0.1241
     88  CA         9.1050    0.8220   31.4290 C.3   294  TYR294      0.1605
     89  C          9.3340    1.9580   32.4390 C.2   294  TYR294      0.2264
     90  O          9.9090    2.9850   32.0810 O.2   294  TYR294     -0.2867
     91  CB         7.8440    1.0820   30.6160 C.3   294  TYR294      0.0534
     92  CG         7.7960    0.3040   29.3270 C.ar  294  TYR294     -0.0201
     93  CD1        7.0670   -0.8770   29.2290 C.ar  294  TYR294     -0.0009
     94  CD2        8.5210    0.7260   28.2100 C.ar  294  TYR294     -0.0009
     95  CE1        7.0410   -1.6160   28.0420 C.ar  294  TYR294      0.0417
     96  CE2        8.4980    0.0010   27.0350 C.ar  294  TYR294      0.0417
     97  CZ         7.7620   -1.1620   26.9560 C.ar  294  TYR294      0.1957
     98  OH         7.7390   -1.8630   25.7800 O.3   294  TYR294     -0.2866
     99  N          7.4250    8.6420   32.9650 N.3   299  TYR299     -0.1241
    100  CA         6.5320    9.1640   31.9060 C.3   299  TYR299      0.1605
    101  C          5.3010    9.9050   32.4400 C.2   299  TYR299      0.2264
    102  O          4.3420   10.1630   31.7030 O.2   299  TYR299     -0.2867
    103  CB         6.1320    8.0170   30.9650 C.3   299  TYR299      0.0534
    104  CG         7.3500    7.3530   30.3760 C.ar  299  TYR299     -0.0201
    105  CD1        8.2050    8.0700   29.5520 C.ar  299  TYR299     -0.0009
    106  CD2        7.6830    6.0340   30.6820 C.ar  299  TYR299     -0.0009
    107  CE1        9.3570    7.4930   29.0420 C.ar  299  TYR299      0.0417
    108  CE2        8.8350    5.4460   30.1760 C.ar  299  TYR299      0.0417
    109  CZ         9.6680    6.1810   29.3490 C.ar  299  TYR299      0.1957
    110  OH        10.8180    5.6340   28.8250 O.3   299  TYR299     -0.2866
    111  N         16.0750   16.1480   36.2990 N.3   328  ARG328     -0.1245
    112  CA        15.0230   16.5710   35.3940 C.3   328  ARG328      0.1563
    113  C         13.7760   16.6920   36.2510 C.2   328  ARG328      0.2260
    114  O         13.4160   15.7570   36.9560 O.2   328  ARG328     -0.2867
    115  CB        14.8150   15.5120   34.3010 C.3   328  ARG328      0.0307
    116  CG        14.2400   16.0350   32.9870 C.3   328  ARG328      0.0489
    117  CD        13.7850   14.9340   32.0280 C.3   328  ARG328      0.2205
    118  NE        12.3270   14.8040   32.0300 N.pl3 328  ARG328     -0.0865
    119  CZ        11.6390   13.6600   31.9920 C.cat 328  ARG328      0.5346
    120  NH1       12.2430   12.4680   31.9360 N.pl3 328  ARG328      0.1354
    121  NH2       10.3080   13.7130   32.0060 N.pl3 328  ARG328      0.1354
    122  N          1.8880    8.2090   30.6510 N.3   370  THR370     -0.1203
    123  CA         1.6760    7.7290   29.2960 C.3   370  THR370      0.1994
    124  C          2.7270    6.7030   28.9430 C.2   370  THR370      0.2618
    125  O          3.9120    6.9820   29.0380 O.2   370  THR370     -0.2717
    126  CB         1.7900    8.8900   28.3190 C.3   370  THR370      0.1784
    127  OG1        0.7520    9.8340   28.5790 O.3   370  THR370     -0.2211
    128  CG2        1.5440    8.3860   26.8850 C.3   370  THR370      0.0376
    129  N          2.2850    5.5250   28.5260 N.am  371  ILE371     -0.1965
    130  CA         3.1650    4.4300   28.1350 C.3   371  ILE371      0.1727
    131  C          2.7550    4.0530   26.7070 C.2   371  ILE371      0.2617
    132  O          1.8320    3.2700   26.5260 O.2   371  ILE371     -0.2715
    133  CB         2.9780    3.2010   29.0640 C.3   371  ILE371      0.0290
    134  CG1        3.1000    3.5520   30.5520 C.3   371  ILE371      0.0022
    135  CG2        3.9650    2.1140   28.6760 C.3   371  ILE371      0.0023
    136  CD1        4.4930    4.0200   30.9540 C.3   371  ILE371      0.0001
    137  N          3.3990    4.6490   25.7140 N.am  372  GLY372     -0.1940
    138  CA         3.0320    4.4300   24.3240 C.3   372  GLY372      0.2014
    139  C          1.6000    4.8210   23.9950 C.2   372  GLY372      0.2638
    140  O          1.2600    6.0030   24.0010 O.2   372  GLY372     -0.2714
    141  N          0.7590    3.8230   23.6980 N.am  373  ASN373     -0.1972
    142  CA        -0.6420    4.0740   23.3600 C.3   373  ASN373      0.1688
    143  C         -1.5110    4.3270   24.5960 C.2   373  ASN373      0.2292
    144  O         -2.5740    4.9600   24.5060 O.2   373  ASN373     -0.2864
    145  CB        -1.2430    2.9020   22.5680 C.3   373  ASN373      0.1181
    146  CG        -1.1250    1.5920   23.2870 C.2   373  ASN373      0.2629
    147  OD1       -0.0140    1.1260   23.5810 O.2   373  ASN373     -0.2716
    148  ND2       -2.2630    0.9640   23.5750 N.am  373  ASN373     -0.0877
    149  N         -4.5330   -0.7350   21.7090 N.3   398  PHE398     -0.1241
    150  CA        -3.5300   -1.3600   20.8540 C.3   398  PHE398      0.1605
    151  C         -4.2630   -2.1400   19.7720 C.2   398  PHE398      0.2264
    152  O         -5.1420   -2.9430   20.0760 O.2   398  PHE398     -0.2867
    153  CB        -2.6340   -2.3110   21.6530 C.3   398  PHE398      0.0534
    154  CG        -1.3220   -2.5870   21.0040 C.ar  398  PHE398     -0.0203
    155  CD1       -0.1770   -1.9030   21.4070 C.ar  398  PHE398     -0.0042
    156  CD2       -1.2240   -3.5020   19.9690 C.ar  398  PHE398     -0.0042
    157  CE1        1.0490   -2.1620   20.8130 C.ar  398  PHE398     -0.0003
    158  CE2        0.0030   -3.7520   19.3570 C.ar  398  PHE398     -0.0003
    159  CZ         1.1330   -3.0830   19.7770 C.ar  398  PHE398     -0.0000
@<TRIPOS>BOND
     1    43    44    2
     2    43    42    1
     3    41    42    1
     4    42    45    1
     5    21    22    1
     6    45    46    1
     7    46    47   ar
     8    46    48   ar
     9    47    49   ar
    10    48    51   ar
    11    48    50   ar
    12    51    53   ar
    13    22    25    1
    14    22    23    1
    15    24    23    2
    16    49    50   ar
    17    23    26   am
    18    50    52   ar
    19    53    54   ar
    20   158   159   ar
    21   158   156   ar
    22    13    12    2
    23   151   152    2
    24   151   150    1
    25   159   157   ar
    26    52    54   ar
    27   156   154   ar
    28    39    38    1
    29    26    32    1
    30    26    27    1
    31    12    11    1
    32    32    31    1
    33   157   155   ar
    34    27    30    1
    35    27    28    1
    36   150   153    1
    37   150   149    1
    38   154   155   ar
    39   154   153    1
    40    38    37    1
    41    38    40    1
    42    30    31    1
    43    33    28   am
    44    33    34    1
    45    11    10    1
    46    11    14    1
    47    37    34    1
    48    28    29    2
    49   145   146    1
    50   145   142    1
    51    14    15    1
    52    78    77    1
    53    34    35    1
    54    36    35    2
    55   146   148   am
    56   146   147    2
    57   142   141    1
    58   142   143    1
    59    62    64   ar
    60    62    60   ar
    61   141   139   am
    62    64    65   ar
    63    15    16   ar
    64    15    17   ar
    65   139   140    2
    66   139   138    1
    67    77    76   ar
    68    77    75   ar
    69    59    60    1
    70    59    56    1
    71   138   137    1
    72    60    61   ar
    73    16    18   ar
    74   144   143    2
    75    76    74   ar
    76    65    66    1
    77    65    63   ar
    78     4     3    2
    79    17    19   ar
    80    75    73   ar
    81    61    63   ar
    82    57    58    2
    83    57    56    1
    84    56    55    1
    85     3     2    1
    86   137   131   am
    87    18    20   ar
    88    98    97    1
    89    74    72   ar
    90    19    20   ar
    91    73    72   ar
    92   132   131    2
    93    72    71    1
    94   131   130    1
    95   128   126    1
    96    97    96   ar
    97    97    95   ar
    98     2     5    1
    99     2     1    1
   100    96    94   ar
   101     6     5    1
   102     6     7    1
   103     8     7   ar
   104    95    93   ar
   105   130   129    1
   106   130   133    1
   107    71    68    1
   108    94    92   ar
   109   126   127    1
   110   126   123    1
   111     7     9   ar
   112   129   124   am
   113    67    68    1
   114   135   133    1
   115   110   109    1
   116   124   125    2
   117   124   123    1
   118    68    69    1
   119   107   109   ar
   120   107   105   ar
   121   133   134    1
   122    93    92   ar
   123   123   122    1
   124    92    91    1
   125   109   108   ar
   126   105   104   ar
   127    86    84   ar
   128   108   106   ar
   129   104   106   ar
   130   104   103    1
   131    69    70    2
   132   134   136    1
   133    91    88    1
   134   103   100    1
   135    85    84   ar
   136    84    83    1
   137    88    87    1
   138    88    89    1
   139   102   101    2
   140   100   101    1
   141   100    99    1
   142   120   119    1
   143   119   121    1
   144   119   118    2
   145   117   118    1
   146   117   116    1
   147    90    89    2
   148    83    80    1
   149    80    79    1
   150    80    81    1
   151   116   115    1
   152    82    81    2
   153   115   112    1
   154   112   113    1
   155   112   111    1
   156   113   114    2
