@<TRIPOS>MOLECULE
tmp/2cfzA00.pdb
 163 150 0 0 0
SMALL
GASTEIGER

@<TRIPOS>ATOM
      1  N         37.9810   31.1750  179.8860 N.3   103  LEU103     -0.1245
      2  CA        38.2260   29.9300  179.1440 C.3   103  LEU103      0.1561
      3  C         39.6780   29.4430  179.2470 C.2   103  LEU103      0.2260
      4  O         39.9470   28.2280  179.4170 O.2   103  LEU103     -0.2867
      5  CB        37.7960   30.1020  177.6540 C.3   103  LEU103      0.0270
      6  CG        37.8180   28.8180  176.8080 C.3   103  LEU103      0.0019
      7  CD1       36.8030   27.8100  177.3350 C.3   103  LEU103      0.0001
      8  CD2       37.5880   29.1050  175.2980 C.3   103  LEU103      0.0001
      9  N         40.0100   36.5800  177.8230 N.3   122  THR122     -0.1218
     10  CA        39.1370   37.0140  176.7220 C.3   122  THR122      0.1862
     11  C         38.7250   38.4930  176.7960 C.2   122  THR122      0.2287
     12  O         38.4430   39.1170  175.7730 O.2   122  THR122     -0.2866
     13  CB        37.8680   36.1200  176.6410 C.3   122  THR122      0.1770
     14  OG1       38.2400   34.7390  176.8720 O.3   122  THR122     -0.2211
     15  CG2       37.2030   36.2320  175.2370 C.3   122  THR122      0.0375
     16  N         44.5520   34.1400  169.1280 N.3   152  HIS152     -0.1226
     17  CA        43.1520   33.8680  169.4220 C.3   152  HIS152      0.1752
     18  C         42.6280   34.8140  170.5150 C.2   152  HIS152      0.2596
     19  O         43.3670   35.1930  171.4460 O.2   152  HIS152     -0.2718
     20  CB        42.9260   32.3900  169.8220 C.3   152  HIS152      0.0759
     21  CG        42.9370   31.4530  168.6520 C.ar  152  HIS152      0.0818
     22  ND1       43.1180   30.1020  168.7850 N.ar  152  HIS152     -0.2268
     23  CD2       42.8120   31.6840  167.3180 C.ar  152  HIS152      0.1154
     24  CE1       43.0990   29.5280  167.5910 C.ar  152  HIS152      0.1986
     25  NE2       42.9040   30.4680  166.6810 N.ar  152  HIS152     -0.2212
     26  N         41.3610   35.1870  170.3900 N.am  153  ALA153     -0.1966
     27  CA        40.7200   36.1350  171.2940 C.3   153  ALA153      0.1728
     28  C         40.7210   35.6950  172.7740 C.2   153  ALA153      0.2616
     29  O         40.7310   36.5350  173.6410 O.2   153  ALA153     -0.2715
     30  CB        39.3080   36.4490  170.8150 C.3   153  ALA153      0.0334
     31  N         40.7250   34.3900  173.0610 N.am  154  ASP154     -0.1971
     32  CA        40.7440   33.9720  174.4460 C.3   154  ASP154      0.1709
     33  C         42.1380   34.1420  175.0590 C.2   154  ASP154      0.2293
     34  O         42.3460   33.8130  176.2390 O.2   154  ASP154     -0.2864
     35  CB        40.1730   32.5480  174.6450 C.3   154  ASP154      0.1436
     36  CG        40.8640   31.5100  173.7960 C.2   154  ASP154      0.3671
     37  OD1       41.1510   31.8010  172.6240 O.co2 154  ASP154     -0.2456
     38  OD2       41.1120   30.3930  174.2970 O.co2 154  ASP154     -0.2456
     39  N         38.0540   35.3830  161.2350 N.3   189  ASN189     -0.1240
     40  CA        36.7660   35.7000  161.8410 C.3   189  ASN189      0.1653
     41  C         35.8740   36.6510  161.0230 C.2   189  ASN189      0.2266
     42  O         34.7410   36.9610  161.4330 O.2   189  ASN189     -0.2867
     43  CB        37.0130   36.3120  163.2240 C.3   189  ASN189      0.1155
     44  CG        37.8630   35.4220  164.1050 C.2   189  ASN189      0.2627
     45  OD1       37.3920   34.4020  164.6240 O.2   189  ASN189     -0.2716
     46  ND2       39.1310   35.7960  164.2690 N.am  189  ASN189     -0.0877
     47  N         29.5490   32.9820  164.0080 N.3   197  MET197     -0.1245
     48  CA        29.0220   33.3990  165.3210 C.3   197  MET197      0.1570
     49  C         27.6710   32.8000  165.6410 C.2   197  MET197      0.2261
     50  O         27.3910   32.4600  166.7880 O.2   197  MET197     -0.2867
     51  CB        28.9490   34.9400  165.4320 C.3   197  MET197      0.0387
     52  CG        30.3110   35.6330  165.2660 C.3   197  MET197      0.0595
     53  SD        30.3850   37.2940  165.9790 S.3   197  MET197     -0.1393
     54  CE        29.5010   38.1480  164.7390 C.3   197  MET197      0.0692
     55  N         28.1750   29.2280  166.3660 N.3   200  ALA200     -0.1231
     56  CA        28.8220   29.1140  167.6980 C.3   200  ALA200      0.1694
     57  C         27.8190   29.1660  168.8790 C.2   200  ALA200      0.2592
     58  O         28.1530   28.7450  169.9870 O.2   200  ALA200     -0.2718
     59  CB        29.8960   30.1740  167.8770 C.3   200  ALA200      0.0304
     60  N         26.6030   29.6840  168.6600 N.am  201  THR201     -0.1953
     61  CA        25.6250   29.6550  169.7380 C.3   201  THR201      0.1897
     62  C         25.3320   28.1940  170.0850 C.2   201  THR201      0.2313
     63  O         25.0600   27.8810  171.2310 O.2   201  THR201     -0.2863
     64  CB        24.3240   30.3920  169.4240 C.3   201  THR201      0.1794
     65  OG1       23.6600   29.7580  168.3360 O.3   201  THR201     -0.2208
     66  CG2       24.5800   31.9100  169.1250 C.3   201  THR201      0.0378
     67  N         28.7740   26.5340  171.8160 N.3   204  TYR204     -0.1241
     68  CA        28.9970   27.0970  173.1590 C.3   204  TYR204      0.1605
     69  C         27.7430   26.9650  174.0100 C.2   204  TYR204      0.2264
     70  O         27.7740   27.2450  175.2120 O.2   204  TYR204     -0.2867
     71  CB        29.4830   28.5720  173.0660 C.3   204  TYR204      0.0534
     72  CG        30.9440   28.6500  172.6530 C.ar  204  TYR204     -0.0201
     73  CD1       31.3110   28.6870  171.3220 C.ar  204  TYR204     -0.0009
     74  CD2       31.9690   28.6290  173.6170 C.ar  204  TYR204     -0.0009
     75  CE1       32.6550   28.7180  170.9400 C.ar  204  TYR204      0.0417
     76  CE2       33.3070   28.6630  173.2490 C.ar  204  TYR204      0.0417
     77  CZ        33.6350   28.7010  171.9070 C.ar  204  TYR204      0.1957
     78  OH        34.9500   28.7420  171.5380 O.3   204  TYR204     -0.2866
     79  N         25.0180   28.8140  174.0970 N.3   206  THR206     -0.1218
     80  CA        24.7930   30.1180  174.7110 C.3   206  THR206      0.1862
     81  C         23.3520   30.3260  175.2270 C.2   206  THR206      0.2287
     82  O         23.1300   31.1680  176.1000 O.2   206  THR206     -0.2866
     83  CB        25.1810   31.2690  173.7550 C.3   206  THR206      0.1770
     84  OG1       24.4670   31.1290  172.5380 O.3   206  THR206     -0.2211
     85  CG2       26.6650   31.2590  173.4360 C.3   206  THR206      0.0375
     86  N         38.2790   22.7890  177.2380 N.3   220  ILE220     -0.1245
     87  CA        39.5320   23.5340  177.5470 C.3   220  ILE220      0.1561
     88  C         39.3190   24.5810  178.6420 C.2   220  ILE220      0.2260
     89  O         40.2560   25.2350  179.0870 O.2   220  ILE220     -0.2867
     90  CB        40.1920   24.1170  176.3090 C.3   220  ILE220      0.0252
     91  CG1       39.2410   25.1130  175.5940 C.3   220  ILE220      0.0019
     92  CG2       40.6680   22.9190  175.3760 C.3   220  ILE220      0.0019
     93  CD1       39.8720   25.8260  174.3270 C.3   220  ILE220      0.0001
     94  N         33.3290   30.7000  178.0560 N.3   224  LEU224     -0.1245
     95  CA        34.0440   31.8840  177.6350 C.3   224  LEU224      0.1561
     96  C         33.4640   33.0580  178.3750 C.2   224  LEU224      0.2260
     97  O         32.2350   33.2060  178.4230 O.2   224  LEU224     -0.2867
     98  CB        33.8080   32.0780  176.1580 C.3   224  LEU224      0.0270
     99  CG        34.6660   32.9230  175.2330 C.3   224  LEU224      0.0019
    100  CD1       36.1620   32.6180  175.3450 C.3   224  LEU224      0.0001
    101  CD2       34.1690   32.5470  173.8220 C.3   224  LEU224      0.0001
    102  N         32.2130   36.8110  178.9830 N.3   226  ARG226     -0.1245
    103  CA        31.5180   37.7290  178.0890 C.3   226  ARG226      0.1563
    104  C         31.9120   39.1580  178.4290 C.2   226  ARG226      0.2260
    105  O         31.8270   39.5800  179.5870 O.2   226  ARG226     -0.2867
    106  CB        29.9900   37.5370  178.2210 C.3   226  ARG226      0.0307
    107  CG        29.5620   36.0580  178.2950 C.3   226  ARG226      0.0489
    108  CD        28.3420   35.7290  177.4270 C.3   226  ARG226      0.2205
    109  NE        28.2430   34.2820  177.1810 N.pl3 226  ARG226     -0.0865
    110  CZ        27.2410   33.5010  177.5870 C.cat 226  ARG226      0.5346
    111  NH1       26.2160   34.0110  178.2570 N.pl3 226  ARG226      0.1354
    112  NH2       27.2650   32.2010  177.3140 N.pl3 226  ARG226      0.1354
    113  N         47.5580   24.8930  165.9710 N.3   261  GLU261     -0.1245
    114  CA        46.2530   25.3200  166.5260 C.3   261  GLU261      0.1567
    115  C         45.8250   26.7410  166.0530 C.2   261  GLU261      0.2260
    116  O         44.6120   27.1060  166.0470 O.2   261  GLU261     -0.2867
    117  CB        46.3230   25.2490  168.0450 C.3   261  GLU261      0.0388
    118  CG        44.9830   25.4640  168.7010 C.3   261  GLU261      0.1160
    119  CD        44.8570   26.8970  169.2310 C.2   261  GLU261      0.3649
    120  OE1       45.7620   27.6910  168.9040 O.co2 261  GLU261     -0.2457
    121  OE2       43.8590   27.2190  169.9530 O.co2 261  GLU261     -0.2457
    122  N         48.9750   26.3450  172.8850 N.3   280  GLU280     -0.1245
    123  CA        47.7500   25.5140  172.7390 C.3   280  GLU280      0.1567
    124  C         47.9910   24.3180  171.8240 C.2   280  GLU280      0.2260
    125  O         47.0570   23.7520  171.2340 O.2   280  GLU280     -0.2867
    126  CB        46.5320   26.3480  172.3020 C.3   280  GLU280      0.0388
    127  CG        45.1750   25.7280  172.7280 C.3   280  GLU280      0.1160
    128  CD        44.0400   26.7350  172.7710 C.2   280  GLU280      0.3649
    129  OE1       42.8740   26.3310  172.5850 O.co2 280  GLU280     -0.2457
    130  OE2       44.2960   27.9330  172.9950 O.co2 280  GLU280     -0.2457
    131  N         31.8220   25.3260  164.7020 N.3   293  ARG293     -0.1245
    132  CA        31.1910   26.6030  164.3920 C.3   293  ARG293      0.1563
    133  C         31.4930   26.9950  162.9490 C.2   293  ARG293      0.2260
    134  O         30.7630   27.7870  162.3460 O.2   293  ARG293     -0.2867
    135  CB        31.6910   27.7030  165.3380 C.3   293  ARG293      0.0307
    136  CG        32.9530   28.4000  164.8640 C.3   293  ARG293      0.0489
    137  CD        33.2780   29.6250  165.7010 C.3   293  ARG293      0.2205
    138  NE        33.8360   29.2270  166.9870 N.pl3 293  ARG293     -0.0865
    139  CZ        35.1290   29.2490  167.2900 C.cat 293  ARG293      0.5346
    140  NH1       36.0280   29.6890  166.4050 N.pl3 293  ARG293      0.1354
    141  NH2       35.5190   28.8510  168.4920 N.pl3 293  ARG293      0.1354
    142  N         42.5930   22.4710  159.8950 N.3   298  ARG298     -0.1245
    143  CA        43.9590   22.6010  160.3810 C.3   298  ARG298      0.1563
    144  C         44.8060   21.4200  159.9420 C.2   298  ARG298      0.2260
    145  O         44.2840   20.4060  159.5150 O.2   298  ARG298     -0.2867
    146  CB        43.9730   22.7710  161.8870 C.3   298  ARG298      0.0307
    147  CG        43.3040   24.0430  162.3330 C.3   298  ARG298      0.0489
    148  CD        42.8760   23.9500  163.7690 C.3   298  ARG298      0.2205
    149  NE        42.4790   25.2480  164.2990 N.pl3 298  ARG298     -0.0865
    150  CZ        41.9680   25.4530  165.5190 C.cat 298  ARG298      0.5346
    151  NH1       41.7440   24.4270  166.3540 N.pl3 298  ARG298      0.1354
    152  NH2       41.6540   26.6870  165.8930 N.pl3 298  ARG298      0.1354
    153  N         21.3640   37.9110  162.5020 N.3   621  PHE621     -0.1241
    154  CA        22.1160   36.9770  163.3050 C.3   621  PHE621      0.1605
    155  C         21.3980   35.6550  163.4520 C.2   621  PHE621      0.2264
    156  O         21.9880   34.6140  163.2300 O.2   621  PHE621     -0.2867
    157  CB        22.4200   37.5420  164.6860 C.3   621  PHE621      0.0534
    158  CG        23.2810   36.6410  165.5030 C.ar  621  PHE621     -0.0203
    159  CD1       24.6740   36.6390  165.3210 C.ar  621  PHE621     -0.0042
    160  CD2       22.7230   35.7490  166.4110 C.ar  621  PHE621     -0.0042
    161  CE1       25.4830   35.8070  166.0540 C.ar  621  PHE621     -0.0003
    162  CE2       23.5540   34.8770  167.1730 C.ar  621  PHE621     -0.0003
    163  CZ        24.9220   34.9130  166.9940 C.ar  621  PHE621     -0.0000
@<TRIPOS>BOND
     1   145   144    2
     2   142   143    1
     3   144   143    1
     4   143   146    1
     5    41    42    2
     6    41    40    1
     7    39    40    1
     8    40    43    1
     9   146   147    1
    10   147   148    1
    11   134   133    2
    12   153   154    1
    13   133   132    1
    14    43    44    1
    15   156   155    2
    16   154   155    1
    17   154   157    1
    18   148   149    1
    19    47    48    1
    20    44    46   am
    21    44    45    2
    22   149   150    2
    23   132   131    1
    24   132   135    1
    25   157   158    1
    26    54    53    1
    27   136   135    1
    28   136   137    1
    29    52    51    1
    30    52    53    1
    31    48    51    1
    32    48    49    1
    33   159   158   ar
    34   159   161   ar
    35   158   160   ar
    36   150   152    1
    37   150   151    1
    38    49    50    2
    39   137   138    1
    40   113   114    1
    41   116   115    2
    42   115   114    1
    43   161   163   ar
    44    55    56    1
    45   140   139    1
    46   160   162   ar
    47   114   117    1
    48    25    23   ar
    49    25    24   ar
    50   138   139    2
    51   163   162   ar
    52   139   141    1
    53    23    21   ar
    54    24    22   ar
    55    56    59    1
    56    56    57    1
    57   117   118    1
    58    65    64    1
    59    21    22   ar
    60    21    20    1
    61    60    57   am
    62    60    61    1
    63   118   119    1
    64    57    58    2
    65   120   119   ar
    66    66    64    1
    67    16    17    1
    68   119   121   ar
    69    17    20    1
    70    17    18    1
    71    64    61    1
    72    61    62    1
    73    62    63    2
    74    26    18   am
    75    26    27    1
    76    18    19    2
    77    30    27    1
    78    75    73   ar
    79    75    77   ar
    80   125   124    2
    81    27    28    1
    82    73    72   ar
    83    78    77    1
    84    67    68    1
    85   124   123    1
    86    77    76   ar
    87   126   127    1
    88   126   123    1
    89    84    83    1
    90   129   128   ar
    91    37    36   ar
    92    72    71    1
    93    72    74   ar
    94   127   128    1
    95   123   122    1
    96   128   130   ar
    97    28    31   am
    98    28    29    2
    99    31    32    1
   100    71    68    1
   101    68    69    1
   102    76    74   ar
   103    85    83    1
   104    83    80    1
   105    36    38   ar
   106    36    35    1
   107   101    99    1
   108    69    70    2
   109    79    80    1
   110    93    91    1
   111    32    35    1
   112    32    33    1
   113    80    81    1
   114    33    34    2
   115    81    82    2
   116    99   100    1
   117    99    98    1
   118    15    13    1
   119     8     6    1
   120    92    90    1
   121    91    90    1
   122    12    11    2
   123    98    95    1
   124    90    87    1
   125    13    10    1
   126    13    14    1
   127    10    11    1
   128    10     9    1
   129     6     7    1
   130     6     5    1
   131   109   108    1
   132   109   110    2
   133    86    87    1
   134   112   110    1
   135   108   107    1
   136    87    88    1
   137   110   111    1
   138    95    94    1
   139    95    96    1
   140     5     2    1
   141   103   106    1
   142   103   104    1
   143   103   102    1
   144   106   107    1
   145    96    97    2
   146   104   105    2
   147    88    89    2
   148     2     3    1
   149     2     1    1
   150     3     4    2
