@<TRIPOS>MOLECULE
tmp/2cg0A00.pdb
 159 156 0 0 0
SMALL
GASTEIGER

@<TRIPOS>ATOM
      1  N         14.7060    5.3190   27.7880 N.3    94  GLU94      -0.1245
      2  CA        14.0030    6.2370   26.8780 C.3    94  GLU94       0.1567
      3  C         14.7200    6.3470   25.5460 C.2    94  GLU94       0.2260
      4  O         14.0770    6.3750   24.4970 O.2    94  GLU94      -0.2867
      5  CB        13.8490    7.6610   27.4260 C.3    94  GLU94       0.0388
      6  CG        13.5840    7.8340   28.9050 C.3    94  GLU94       0.1160
      7  CD        13.2290    9.2820   29.2550 C.2    94  GLU94       0.3649
      8  OE1       12.8520   10.0360   28.3310 O.co2  94  GLU94      -0.2457
      9  OE2       13.3290    9.6650   30.4440 O.co2  94  GLU94      -0.2457
     10  N         13.9970    3.8250   22.6050 N.3    97  PHE97      -0.1241
     11  CA        12.6900    3.8090   21.9450 C.3    97  PHE97       0.1605
     12  C         12.7830    4.0490   20.4470 C.2    97  PHE97       0.2264
     13  O         12.1470    3.3480   19.6680 O.2    97  PHE97      -0.2867
     14  CB        11.7620    4.8730   22.5300 C.3    97  PHE97       0.0534
     15  CG        11.2750    4.5810   23.9250 C.ar   97  PHE97      -0.0203
     16  CD1       11.5150    3.3650   24.5490 C.ar   97  PHE97      -0.0042
     17  CD2       10.5600    5.5480   24.6150 C.ar   97  PHE97      -0.0042
     18  CE1       11.0480    3.1280   25.8290 C.ar   97  PHE97      -0.0003
     19  CE2       10.1020    5.3060   25.8920 C.ar   97  PHE97      -0.0003
     20  CZ        10.3450    4.0910   26.4930 C.ar   97  PHE97      -0.0000
     21  N          6.7780    0.6950   17.0900 N.3   127  ALA127     -0.1231
     22  CA         6.6650    0.6910   18.5410 C.3   127  ALA127      0.1679
     23  C          7.7750   -0.1790   19.1210 C.2   127  ALA127      0.2434
     24  O          7.9760   -1.3080   18.6650 O.2   127  ALA127     -0.2733
     25  CB         5.3220    0.1510   18.9430 C.3   127  ALA127      0.0304
     26  N          8.4920    0.3480   20.0960 N.am  128  PRO128     -0.2718
     27  CA         9.5830   -0.3650   20.7660 C.3   128  PRO128      0.1535
     28  C          9.0430   -1.1160   21.9800 C.2   128  PRO128      0.2598
     29  O          8.8300   -0.5560   23.0420 O.2   128  PRO128     -0.2715
     30  CB        10.5000    0.7730   21.2090 C.3   128  PRO128      0.0310
     31  CG         9.5350    1.9110   21.5400 C.3   128  PRO128      0.0237
     32  CD         8.3510    1.7300   20.6200 C.3   128  PRO128      0.0939
     33  N          8.8380   -2.4060   21.8150 N.am  129  LEU129     -0.1978
     34  CA         8.0280   -3.1510   22.7490 C.3   129  LEU129      0.1596
     35  C          8.8720   -4.1510   23.4960 C.2   129  LEU129      0.2287
     36  O          9.7700   -4.7740   22.9060 O.2   129  LEU129     -0.2864
     37  CB         6.9300   -3.8800   21.9780 C.3   129  LEU129      0.0297
     38  CG         6.0320   -2.9060   21.1850 C.3   129  LEU129      0.0022
     39  CD1        5.1270   -3.6470   20.1830 C.3   129  LEU129      0.0001
     40  CD2        5.2480   -2.0130   22.1240 C.3   129  LEU129      0.0001
     41  N         -2.0770    4.5040   15.1770 N.3   160  TRP160     -0.1241
     42  CA        -2.7790    3.3510   15.7760 C.3   160  TRP160      0.1605
     43  C         -3.9730    2.8990   14.9110 C.2   160  TRP160      0.2264
     44  O         -4.4170    1.7550   14.9960 O.2   160  TRP160     -0.2867
     45  CB        -3.2630    3.7000   17.1880 C.3   160  TRP160      0.0550
     46  CG        -2.2060    4.3150   17.9970 C.ar  160  TRP160      0.0003
     47  CD1       -2.0770    5.6310   18.3150 C.ar  160  TRP160      0.0946
     48  CD2       -1.0950    3.6510   18.5750 C.ar  160  TRP160      0.0152
     49  NE1       -0.9500    5.8250   19.0720 N.ar  160  TRP160     -0.2442
     50  CE2       -0.3110    4.6330   19.2270 C.ar  160  TRP160      0.0810
     51  CE3       -0.6630    2.3230   18.6070 C.ar  160  TRP160      0.0012
     52  CZ2        0.8540    4.3230   19.9110 C.ar  160  TRP160      0.0191
     53  CZ3        0.5060    2.0230   19.2750 C.ar  160  TRP160      0.0001
     54  CH2        1.2490    3.0210   19.9160 C.ar  160  TRP160      0.0015
     55  N         -1.6120   -9.8020   26.6390 N.3   276  TYR276     -0.1241
     56  CA        -2.4950   -9.8860   25.4820 C.3   276  TYR276      0.1605
     57  C         -2.8940  -11.3220   25.2040 C.2   276  TYR276      0.2264
     58  O         -2.1180  -12.2680   25.4320 O.2   276  TYR276     -0.2867
     59  CB        -1.8590   -9.2000   24.2670 C.3   276  TYR276      0.0534
     60  CG        -2.0270   -7.7140   24.3370 C.ar  276  TYR276     -0.0201
     61  CD1       -1.2160   -6.9480   25.1610 C.ar  276  TYR276     -0.0009
     62  CD2       -3.0380   -7.0670   23.6300 C.ar  276  TYR276     -0.0009
     63  CE1       -1.3880   -5.6020   25.2570 C.ar  276  TYR276      0.0417
     64  CE2       -3.2040   -5.6920   23.7250 C.ar  276  TYR276      0.0417
     65  CZ        -2.3870   -4.9800   24.5560 C.ar  276  TYR276      0.1957
     66  OH        -2.5500   -3.6150   24.6870 O.3   276  TYR276     -0.2866
     67  N          3.1230   -6.1560   28.6050 N.3   288  TYR288     -0.1241
     68  CA         3.8310   -4.9550   29.0170 C.3   288  TYR288      0.1605
     69  C          3.7580   -4.7960   30.5060 C.2   288  TYR288      0.2264
     70  O          2.6820   -4.5950   31.0480 O.2   288  TYR288     -0.2867
     71  CB         3.2420   -3.7670   28.2660 C.3   288  TYR288      0.0534
     72  CG         3.3630   -4.0280   26.7880 C.ar  288  TYR288     -0.0201
     73  CD1        4.5900   -4.3920   26.2390 C.ar  288  TYR288     -0.0009
     74  CD2        2.2570   -4.0080   25.9540 C.ar  288  TYR288     -0.0009
     75  CE1        4.7280   -4.6830   24.9080 C.ar  288  TYR288      0.0417
     76  CE2        2.3870   -4.2820   24.6040 C.ar  288  TYR288      0.0417
     77  CZ         3.6280   -4.6250   24.0860 C.ar  288  TYR288      0.1957
     78  OH         3.7870   -4.9140   22.7420 O.3   288  TYR288     -0.2866
     79  N          4.2930   -2.2430   32.5990 N.3   290  ASP290     -0.1239
     80  CA         4.5190   -0.8050   32.5000 C.3   290  ASP290      0.1674
     81  C          5.3950   -0.2770   33.6540 C.2   290  ASP290      0.2266
     82  O          6.3130    0.5320   33.4370 O.2   290  ASP290     -0.2867
     83  CB         3.1720   -0.0890   32.4100 C.3   290  ASP290      0.1410
     84  CG         2.4880   -0.3160   31.0650 C.2   290  ASP290      0.3668
     85  OD1        1.2500   -0.1650   30.9790 O.co2 290  ASP290     -0.2456
     86  OD2        3.1160   -0.6620   30.0370 O.co2 290  ASP290     -0.2456
     87  N          9.0870   -0.4950   31.9770 N.3   294  TYR294     -0.1241
     88  CA         9.1440    0.8690   31.4100 C.3   294  TYR294      0.1605
     89  C          9.3670    1.9990   32.4230 C.2   294  TYR294      0.2264
     90  O          9.9390    3.0240   32.0670 O.2   294  TYR294     -0.2867
     91  CB         7.8780    1.1540   30.5900 C.3   294  TYR294      0.0534
     92  CG         7.8300    0.3910   29.2790 C.ar  294  TYR294     -0.0201
     93  CD1        7.1730   -0.8320   29.1830 C.ar  294  TYR294     -0.0009
     94  CD2        8.4850    0.8710   28.1470 C.ar  294  TYR294     -0.0009
     95  CE1        7.1480   -1.5420   27.9770 C.ar  294  TYR294      0.0417
     96  CE2        8.4600    0.1780   26.9580 C.ar  294  TYR294      0.0417
     97  CZ         7.8030   -1.0300   26.8770 C.ar  294  TYR294      0.1957
     98  OH         7.7830   -1.7000   25.6720 O.3   294  TYR294     -0.2866
     99  N          7.4030    8.6100   32.8900 N.3   299  TYR299     -0.1241
    100  CA         6.5070    9.1410   31.8510 C.3   299  TYR299      0.1605
    101  C          5.2840    9.8860   32.3890 C.2   299  TYR299      0.2264
    102  O          4.3120   10.1120   31.6700 O.2   299  TYR299     -0.2867
    103  CB         6.1160    8.0170   30.8940 C.3   299  TYR299      0.0534
    104  CG         7.3620    7.3720   30.3210 C.ar  299  TYR299     -0.0201
    105  CD1        8.2200    8.1020   29.5140 C.ar  299  TYR299     -0.0009
    106  CD2        7.7310    6.0730   30.6640 C.ar  299  TYR299     -0.0009
    107  CE1        9.3990    7.5520   29.0280 C.ar  299  TYR299      0.0417
    108  CE2        8.8990    5.5090   30.1750 C.ar  299  TYR299      0.0417
    109  CZ         9.7320    6.2530   29.3580 C.ar  299  TYR299      0.1957
    110  OH        10.8990    5.7260   28.8690 O.3   299  TYR299     -0.2866
    111  N         16.0060   16.1480   36.2610 N.3   328  ARG328     -0.1245
    112  CA        14.9530   16.5990   35.3770 C.3   328  ARG328      0.1563
    113  C         13.6720   16.6890   36.2090 C.2   328  ARG328      0.2260
    114  O         13.2930   15.7410   36.8900 O.2   328  ARG328     -0.2867
    115  CB        14.7910   15.5930   34.2380 C.3   328  ARG328      0.0307
    116  CG        13.8060   15.9990   33.1640 C.3   328  ARG328      0.0489
    117  CD        13.5080   14.8980   32.1560 C.3   328  ARG328      0.2205
    118  NE        12.0690   14.6770   32.0400 N.pl3 328  ARG328     -0.0865
    119  CZ        11.4640   13.4920   32.0400 C.cat 328  ARG328      0.5346
    120  NH1       12.1480   12.3510   32.1400 N.pl3 328  ARG328      0.1354
    121  NH2       10.1450   13.4480   31.9290 N.pl3 328  ARG328      0.1354
    122  N          1.8750    8.1160   30.5770 N.3   370  THR370     -0.1203
    123  CA         1.6280    7.6800   29.2140 C.3   370  THR370      0.1994
    124  C          2.7000    6.6890   28.8260 C.2   370  THR370      0.2618
    125  O          3.8760    7.0160   28.8780 O.2   370  THR370     -0.2717
    126  CB         1.6740    8.8850   28.2580 C.3   370  THR370      0.1784
    127  OG1        0.6370    9.8180   28.5880 O.3   370  THR370     -0.2211
    128  CG2        1.3700    8.4620   26.8180 C.3   370  THR370      0.0376
    129  N          2.2870    5.5020   28.4010 N.am  371  ILE371     -0.1965
    130  CA         3.1980    4.4660   27.9620 C.3   371  ILE371      0.1727
    131  C          2.7270    4.0680   26.5560 C.2   371  ILE371      0.2617
    132  O          1.7940    3.2790   26.4370 O.2   371  ILE371     -0.2715
    133  CB         3.1130    3.2230   28.8920 C.3   371  ILE371      0.0290
    134  CG1        3.3280    3.5760   30.3690 C.3   371  ILE371      0.0022
    135  CG2        4.1040    2.1800   28.4510 C.3   371  ILE371      0.0023
    136  CD1        4.7700    3.9010   30.7080 C.3   371  ILE371      0.0001
    137  N          3.3380    4.6390   25.5220 N.am  372  GLY372     -0.1940
    138  CA         2.9340    4.3940   24.1440 C.3   372  GLY372      0.2014
    139  C          1.5160    4.8450   23.8160 C.2   372  GLY372      0.2638
    140  O          1.2100    6.0390   23.8430 O.2   372  GLY372     -0.2714
    141  N          0.6550    3.8760   23.5070 N.am  373  ASN373     -0.1972
    142  CA        -0.7620    4.1200   23.2240 C.3   373  ASN373      0.1688
    143  C         -1.5990    4.3300   24.4830 C.2   373  ASN373      0.2292
    144  O         -2.6900    4.9270   24.4290 O.2   373  ASN373     -0.2864
    145  CB        -1.3630    2.9490   22.4410 C.3   373  ASN373      0.1181
    146  CG        -1.2070    1.6400   23.1510 C.2   373  ASN373      0.2629
    147  OD1       -0.0790    1.1880   23.4130 O.2   373  ASN373     -0.2716
    148  ND2       -2.3280    1.0090   23.4920 N.am  373  ASN373     -0.0877
    149  N         -4.6120   -0.6650   21.6550 N.3   398  PHE398     -0.1241
    150  CA        -3.5860   -1.2820   20.8300 C.3   398  PHE398      0.1605
    151  C         -4.2900   -2.0970   19.7380 C.2   398  PHE398      0.2264
    152  O         -5.1750   -2.9000   20.0320 O.2   398  PHE398     -0.2867
    153  CB        -2.6780   -2.1950   21.6410 C.3   398  PHE398      0.0534
    154  CG        -1.3740   -2.4830   20.9640 C.ar  398  PHE398     -0.0203
    155  CD1       -0.2420   -1.7530   21.2760 C.ar  398  PHE398     -0.0042
    156  CD2       -1.2890   -3.4490   19.9700 C.ar  398  PHE398     -0.0042
    157  CE1        0.9580   -2.0070   20.6430 C.ar  398  PHE398     -0.0003
    158  CE2       -0.1000   -3.6940   19.3350 C.ar  398  PHE398     -0.0003
    159  CZ         1.0290   -2.9700   19.6760 C.ar  398  PHE398     -0.0000
@<TRIPOS>BOND
     1    43    44    2
     2    43    42    1
     3    41    42    1
     4    42    45    1
     5    21    22    1
     6    45    46    1
     7    46    47   ar
     8    46    48   ar
     9    47    49   ar
    10    22    25    1
    11    22    23    1
    12    48    51   ar
    13    48    50   ar
    14    51    53   ar
    15    24    23    2
    16    49    50   ar
    17    23    26   am
    18    50    52   ar
    19    53    54   ar
    20   158   159   ar
    21   158   156   ar
    22    13    12    2
    23   159   157   ar
    24   151   152    2
    25   151   150    1
    26    52    54   ar
    27   156   154   ar
    28    26    32    1
    29    26    27    1
    30    39    38    1
    31    12    11    1
    32    32    31    1
    33   157   155   ar
    34    27    30    1
    35    27    28    1
    36   150   153    1
    37   150   149    1
    38   154   155   ar
    39   154   153    1
    40    38    37    1
    41    38    40    1
    42    30    31    1
    43    33    28   am
    44    33    34    1
    45    11    14    1
    46    11    10    1
    47    37    34    1
    48    28    29    2
    49   145   146    1
    50   145   142    1
    51    14    15    1
    52    78    77    1
    53    34    35    1
    54    36    35    2
    55   146   147    2
    56   146   148   am
    57   142   141    1
    58   142   143    1
    59   141   139   am
    60    62    64   ar
    61    62    60   ar
    62    64    65   ar
    63   139   140    2
    64   139   138    1
    65    15    16   ar
    66    15    17   ar
    67    77    76   ar
    68    77    75   ar
    69   138   137    1
    70    59    60    1
    71    59    56    1
    72    60    61   ar
    73   144   143    2
    74     4     3    2
    75    16    18   ar
    76    65    66    1
    77    65    63   ar
    78    76    74   ar
    79    17    19   ar
    80    75    73   ar
    81    61    63   ar
    82    57    58    2
    83    57    56    1
    84    56    55    1
    85   137   131   am
    86     3     2    1
    87    98    97    1
    88    18    20   ar
    89    19    20   ar
    90    74    72   ar
    91    73    72   ar
    92   132   131    2
    93   131   130    1
    94    72    71    1
    95   128   126    1
    96    97    96   ar
    97    97    95   ar
    98     2     5    1
    99     2     1    1
   100    96    94   ar
   101     5     6    1
   102   130   129    1
   103   130   133    1
   104    95    93   ar
   105    94    92   ar
   106   126   127    1
   107   126   123    1
   108    71    68    1
   109     8     7   ar
   110   129   124   am
   111   135   133    1
   112    67    68    1
   113   124   125    2
   114   124   123    1
   115   110   109    1
   116   133   134    1
   117     6     7    1
   118    68    69    1
   119   107   109   ar
   120   107   105   ar
   121    93    92   ar
   122   123   122    1
   123     7     9   ar
   124    92    91    1
   125   109   108   ar
   126   105   104   ar
   127    86    84   ar
   128   108   106   ar
   129   104   106   ar
   130   104   103    1
   131   134   136    1
   132    69    70    2
   133    91    88    1
   134   103   100    1
   135    85    84   ar
   136    84    83    1
   137    88    87    1
   138    88    89    1
   139   102   101    2
   140   100   101    1
   141   100    99    1
   142   121   119    1
   143   118   119    2
   144   118   117    1
   145   119   120    1
   146    90    89    2
   147   117   116    1
   148    83    80    1
   149    80    79    1
   150    80    81    1
   151   116   115    1
   152    82    81    2
   153   115   112    1
   154   112   113    1
   155   112   111    1
   156   113   114    2
