@<TRIPOS>MOLECULE
tmp/2cg1A00.pdb
 147 145 0 0 0
SMALL
GASTEIGER

@<TRIPOS>ATOM
      1  N         13.8700    3.8150   22.6480 N.3    97  PHE97      -0.1241
      2  CA        12.5720    3.8250   21.9730 C.3    97  PHE97       0.1605
      3  C         12.6920    4.0380   20.4700 C.2    97  PHE97       0.2264
      4  O         12.0530    3.3400   19.6990 O.2    97  PHE97      -0.2867
      5  CB        11.6670    4.9290   22.5240 C.3    97  PHE97       0.0534
      6  CG        11.2010    4.7050   23.9350 C.ar   97  PHE97      -0.0203
      7  CD1       11.4750    3.5250   24.6200 C.ar   97  PHE97      -0.0042
      8  CD2       10.4820    5.6950   24.5830 C.ar   97  PHE97      -0.0042
      9  CE1       11.0260    3.3370   25.9020 C.ar   97  PHE97      -0.0003
     10  CE2       10.0420    5.5080   25.8720 C.ar   97  PHE97      -0.0003
     11  CZ        10.3150    4.3230   26.5280 C.ar   97  PHE97      -0.0000
     12  N          6.7910    0.6160   17.1660 N.3   127  ALA127     -0.1231
     13  CA         6.7050    0.6440   18.6190 C.3   127  ALA127      0.1679
     14  C          7.8280   -0.2120   19.2140 C.2   127  ALA127      0.2434
     15  O          8.0710   -1.3280   18.7450 O.2   127  ALA127     -0.2733
     16  CB         5.3620    0.1610   19.0740 C.3   127  ALA127      0.0304
     17  N          8.5200    0.3310   20.2050 N.am  128  PRO128     -0.2718
     18  CA         9.6090   -0.3510   20.9150 C.3   128  PRO128      0.1535
     19  C          9.0770   -1.1520   22.0970 C.2   128  PRO128      0.2598
     20  O          8.8970   -0.6420   23.2000 O.2   128  PRO128     -0.2715
     21  CB        10.4650    0.8130   21.4040 C.3   128  PRO128      0.0310
     22  CG         9.4640    1.8950   21.6940 C.3   128  PRO128      0.0237
     23  CD         8.3510    1.7160   20.7000 C.3   128  PRO128      0.0939
     24  N          8.8400   -2.4290   21.8490 N.am  129  LEU129     -0.1978
     25  CA         8.0380   -3.2520   22.7370 C.3   129  LEU129      0.1596
     26  C          8.8790   -4.2500   23.5030 C.2   129  LEU129      0.2287
     27  O          9.7640   -4.9000   22.9350 O.2   129  LEU129     -0.2864
     28  CB         6.9920   -3.9920   21.9110 C.3   129  LEU129      0.0297
     29  CG         6.0930   -3.0280   21.1320 C.3   129  LEU129      0.0022
     30  CD1        5.2090   -3.7790   20.1140 C.3   129  LEU129      0.0001
     31  CD2        5.2810   -2.1830   22.0980 C.3   129  LEU129      0.0001
     32  N         -2.0540    4.4580   15.2520 N.3   160  TRP160     -0.1241
     33  CA        -2.7860    3.3210   15.8120 C.3   160  TRP160      0.1605
     34  C         -3.9620    2.8640   14.9350 C.2   160  TRP160      0.2264
     35  O         -4.3870    1.7060   15.0170 O.2   160  TRP160     -0.2867
     36  CB        -3.2670    3.6300   17.2320 C.3   160  TRP160      0.0550
     37  CG        -2.1940    4.2310   18.0480 C.ar  160  TRP160      0.0003
     38  CD1       -2.0410    5.5380   18.3540 C.ar  160  TRP160      0.0946
     39  CD2       -1.0920    3.5480   18.6270 C.ar  160  TRP160      0.0152
     40  NE1       -0.8980    5.7230   19.0930 N.ar  160  TRP160     -0.2442
     41  CE2       -0.2970    4.5120   19.2810 C.ar  160  TRP160      0.0810
     42  CE3       -0.6840    2.2140   18.6590 C.ar  160  TRP160      0.0012
     43  CZ2        0.8720    4.1840   19.9550 C.ar  160  TRP160      0.0191
     44  CZ3        0.4880    1.8920   19.3340 C.ar  160  TRP160      0.0001
     45  CH2        1.2440    2.8780   19.9680 C.ar  160  TRP160      0.0015
     46  N         -1.6150   -9.8570   26.7100 N.3   276  TYR276     -0.1241
     47  CA        -2.5190   -9.9560   25.5580 C.3   276  TYR276      0.1605
     48  C         -2.9300  -11.4060   25.2720 C.2   276  TYR276      0.2264
     49  O         -2.1490  -12.3500   25.4450 O.2   276  TYR276     -0.2867
     50  CB        -1.8980   -9.2530   24.3320 C.3   276  TYR276      0.0534
     51  CG        -2.0400   -7.7500   24.4100 C.ar  276  TYR276     -0.0201
     52  CD1       -1.2110   -6.9820   25.2350 C.ar  276  TYR276     -0.0009
     53  CD2       -3.0400   -7.0920   23.7090 C.ar  276  TYR276     -0.0009
     54  CE1       -1.3630   -5.6160   25.3310 C.ar  276  TYR276      0.0417
     55  CE2       -3.2010   -5.7100   23.8150 C.ar  276  TYR276      0.0417
     56  CZ        -2.3610   -4.9890   24.6300 C.ar  276  TYR276      0.1957
     57  OH        -2.4900   -3.6330   24.7770 O.3   276  TYR276     -0.2866
     58  N          3.0860   -6.2390   28.6360 N.3   288  TYR288     -0.1241
     59  CA         3.8090   -5.0350   28.9980 C.3   288  TYR288      0.1605
     60  C          3.7400   -4.8040   30.4950 C.2   288  TYR288      0.2264
     61  O          2.6760   -4.5760   31.0410 O.2   288  TYR288     -0.2867
     62  CB         3.2690   -3.8710   28.1700 C.3   288  TYR288      0.0534
     63  CG         3.4040   -4.1870   26.7000 C.ar  288  TYR288     -0.0201
     64  CD1        4.6450   -4.5080   26.1560 C.ar  288  TYR288     -0.0009
     65  CD2        2.2980   -4.2260   25.8590 C.ar  288  TYR288     -0.0009
     66  CE1        4.7870   -4.8480   24.8300 C.ar  288  TYR288      0.0417
     67  CE2        2.4400   -4.5530   24.5120 C.ar  288  TYR288      0.0417
     68  CZ         3.6910   -4.8640   24.0080 C.ar  288  TYR288      0.1957
     69  OH         3.8630   -5.2020   22.6750 O.3   288  TYR288     -0.2866
     70  N          4.2440   -2.2770   32.5820 N.3   290  ASP290     -0.1239
     71  CA         4.4220   -0.8360   32.4660 C.3   290  ASP290      0.1674
     72  C          5.2820   -0.3020   33.6200 C.2   290  ASP290      0.2266
     73  O          6.1610    0.5390   33.4180 O.2   290  ASP290     -0.2867
     74  CB         3.0510   -0.1590   32.3810 C.3   290  ASP290      0.1410
     75  CG         2.3450   -0.4330   31.0610 C.2   290  ASP290      0.3668
     76  OD1        1.1020   -0.3110   31.0080 O.co2 290  ASP290     -0.2456
     77  OD2        2.9520   -0.7720   30.0190 O.co2 290  ASP290     -0.2456
     78  N          9.0280   -0.5280   31.9980 N.3   294  TYR294     -0.1241
     79  CA         9.0890    0.8270   31.4220 C.3   294  TYR294      0.1605
     80  C          9.3210    1.9580   32.4340 C.2   294  TYR294      0.2264
     81  O          9.9130    2.9810   32.0750 O.2   294  TYR294     -0.2867
     82  CB         7.8370    1.1000   30.5870 C.3   294  TYR294      0.0534
     83  CG         7.8130    0.3420   29.2860 C.ar  294  TYR294     -0.0201
     84  CD1        7.1780   -0.8870   29.1860 C.ar  294  TYR294     -0.0009
     85  CD2        8.4600    0.8420   28.1600 C.ar  294  TYR294     -0.0009
     86  CE1        7.1680   -1.5920   27.9850 C.ar  294  TYR294      0.0417
     87  CE2        8.4610    0.1480   26.9710 C.ar  294  TYR294      0.0417
     88  CZ         7.8150   -1.0620   26.8870 C.ar  294  TYR294      0.1957
     89  OH         7.8100   -1.7430   25.6970 O.3   294  TYR294     -0.2866
     90  N          7.3550    8.5800   32.9630 N.3   299  TYR299     -0.1241
     91  CA         6.4780    9.1160   31.9070 C.3   299  TYR299      0.1605
     92  C          5.2510    9.8470   32.4510 C.2   299  TYR299      0.2264
     93  O          4.2860   10.1100   31.7280 O.2   299  TYR299     -0.2867
     94  CB         6.0940    7.9830   30.9430 C.3   299  TYR299      0.0534
     95  CG         7.3410    7.3480   30.3820 C.ar  299  TYR299     -0.0201
     96  CD1        8.2000    8.0890   29.5860 C.ar  299  TYR299     -0.0009
     97  CD2        7.6970    6.0340   30.6920 C.ar  299  TYR299     -0.0009
     98  CE1        9.3830    7.5500   29.1020 C.ar  299  TYR299      0.0417
     99  CE2        8.8760    5.4810   30.2040 C.ar  299  TYR299      0.0417
    100  CZ         9.7150    6.2480   29.4060 C.ar  299  TYR299      0.1957
    101  OH        10.8910    5.7380   28.9150 O.3   299  TYR299     -0.2866
    102  N          2.8190   12.6060   33.2580 N.3   301  ASN301     -0.1240
    103  CA         2.4410   13.8140   32.5400 C.3   301  ASN301      0.1653
    104  C          2.5950   15.0630   33.4100 C.2   301  ASN301      0.2266
    105  O          2.3740   15.0190   34.6220 O.2   301  ASN301     -0.2867
    106  CB         0.9560   13.7830   32.1640 C.3   301  ASN301      0.1155
    107  CG         0.5410   12.6200   31.2490 C.2   301  ASN301      0.2627
    108  OD1       -0.6610   12.3970   31.0860 O.2   301  ASN301     -0.2716
    109  ND2        1.4890   11.8760   30.6790 N.am  301  ASN301     -0.0877
    110  N          1.8200    8.0970   30.6710 N.3   370  THR370     -0.1203
    111  CA         1.5850    7.6340   29.3160 C.3   370  THR370      0.1994
    112  C          2.6360    6.6110   28.9650 C.2   370  THR370      0.2618
    113  O          3.8200    6.8880   29.0640 O.2   370  THR370     -0.2717
    114  CB         1.6990    8.7980   28.3390 C.3   370  THR370      0.1784
    115  OG1        0.7030    9.8010   28.6160 O.3   370  THR370     -0.2211
    116  CG2        1.4320    8.3390   26.8970 C.3   370  THR370      0.0376
    117  N          2.1990    5.4360   28.5340 N.am  371  ILE371     -0.1965
    118  CA         3.0980    4.3770   28.1190 C.3   371  ILE371      0.1727
    119  C          2.6810    3.9900   26.7030 C.2   371  ILE371      0.2617
    120  O          1.7640    3.2030   26.5460 O.2   371  ILE371     -0.2715
    121  CB         2.9850    3.1490   29.0710 C.3   371  ILE371      0.0290
    122  CG1        3.1930    3.5360   30.5450 C.3   371  ILE371      0.0022
    123  CG2        3.9520    2.0680   28.6310 C.3   371  ILE371      0.0023
    124  CD1        4.6140    3.9300   30.8910 C.3   371  ILE371      0.0001
    125  N          3.2960    4.6040   25.6920 N.am  372  GLY372     -0.1940
    126  CA         2.9560    4.3650   24.2970 C.3   372  GLY372      0.2014
    127  C          1.5250    4.7590   23.9680 C.2   372  GLY372      0.2638
    128  O          1.1820    5.9370   23.9900 O.2   372  GLY372     -0.2714
    129  N          0.6950    3.7700   23.6480 N.am  373  ASN373     -0.1972
    130  CA        -0.7260    4.0030   23.3960 C.3   373  ASN373      0.1688
    131  C         -1.5730    4.2210   24.6460 C.2   373  ASN373      0.2292
    132  O         -2.6310    4.8530   24.5500 O.2   373  ASN373     -0.2864
    133  CB        -1.3290    2.8380   22.5890 C.3   373  ASN373      0.1181
    134  CG        -1.1910    1.5100   23.2910 C.2   373  ASN373      0.2629
    135  OD1       -0.0710    1.0400   23.5420 O.2   373  ASN373     -0.2716
    136  ND2       -2.3250    0.8890   23.6440 N.am  373  ASN373     -0.0877
    137  N         -4.6040   -0.7510   21.7140 N.3   398  PHE398     -0.1241
    138  CA        -3.5720   -1.3560   20.8780 C.3   398  PHE398      0.1605
    139  C         -4.2670   -2.1620   19.7890 C.2   398  PHE398      0.2264
    140  O         -5.1290   -2.9840   20.0860 O.2   398  PHE398     -0.2867
    141  CB        -2.6530   -2.2620   21.6970 C.3   398  PHE398      0.0534
    142  CG        -1.3440   -2.5420   21.0370 C.ar  398  PHE398     -0.0203
    143  CD1       -0.2130   -1.8110   21.3730 C.ar  398  PHE398     -0.0042
    144  CD2       -1.2360   -3.5280   20.0730 C.ar  398  PHE398     -0.0042
    145  CE1        1.0050   -2.0660   20.7650 C.ar  398  PHE398     -0.0003
    146  CE2       -0.0250   -3.7810   19.4580 C.ar  398  PHE398     -0.0003
    147  CZ         1.1010   -3.0560   19.8090 C.ar  398  PHE398     -0.0000
@<TRIPOS>BOND
     1    34    35    2
     2    34    33    1
     3    32    33    1
     4    33    36    1
     5    12    13    1
     6    36    37    1
     7    37    38   ar
     8    37    39   ar
     9    38    40   ar
    10    13    16    1
    11    13    14    1
    12    39    42   ar
    13    39    41   ar
    14    42    44   ar
    15    15    14    2
    16    40    41   ar
    17    14    17   am
    18    41    43   ar
    19    44    45   ar
    20   146   147   ar
    21   146   144   ar
    22     4     3    2
    23   139   140    2
    24   139   138    1
    25   147   145   ar
    26    43    45   ar
    27   144   142   ar
    28    30    29    1
    29    17    23    1
    30    17    18    1
    31     3     2    1
    32    23    22    1
    33   145   143   ar
    34   138   141    1
    35   138   137    1
    36    18    21    1
    37    18    19    1
    38   142   143   ar
    39   142   141    1
    40    29    28    1
    41    29    31    1
    42    21    22    1
    43    24    19   am
    44    24    25    1
    45    28    25    1
    46     2     5    1
    47     2     1    1
    48    19    20    2
    49     5     6    1
    50   133   134    1
    51   133   130    1
    52    69    68    1
    53    25    26    1
    54    27    26    2
    55   134   135    2
    56   134   136   am
    57   130   129    1
    58   130   131    1
    59   129   127   am
    60    53    55   ar
    61    53    51   ar
    62    55    56   ar
    63     6     8   ar
    64     6     7   ar
    65   127   128    2
    66   127   126    1
    67    68    67   ar
    68    68    66   ar
    69   126   125    1
    70    50    51    1
    71    50    47    1
    72    51    52   ar
    73    67    65   ar
    74   132   131    2
    75     8    10   ar
    76     7     9   ar
    77    56    57    1
    78    56    54   ar
    79    66    64   ar
    80    52    54   ar
    81    48    49    2
    82    48    47    1
    83    47    46    1
    84   125   119   am
    85    89    88    1
    86    65    63   ar
    87    10    11   ar
    88     9    11   ar
    89    64    63   ar
    90   120   119    2
    91    63    62    1
    92   119   118    1
    93    88    87   ar
    94    88    86   ar
    95   116   114    1
    96    87    85   ar
    97    86    84   ar
    98   118   117    1
    99   118   121    1
   100    85    83   ar
   101    62    59    1
   102   114   115    1
   103   114   111    1
   104   117   112   am
   105   123   121    1
   106    58    59    1
   107   101   100    1
   108   112   113    2
   109   112   111    1
   110    59    60    1
   111   121   122    1
   112    98   100   ar
   113    98    96   ar
   114    84    83   ar
   115    83    82    1
   116   111   110    1
   117   100    99   ar
   118    96    95   ar
   119    77    75   ar
   120    99    97   ar
   121    95    97   ar
   122    95    94    1
   123    60    61    2
   124   122   124    1
   125    82    79    1
   126   109   107   am
   127    94    91    1
   128    76    75   ar
   129    75    74    1
   130   108   107    2
   131   107   106    1
   132    79    78    1
   133    79    80    1
   134    93    92    2
   135    91    92    1
   136    91    90    1
   137    81    80    2
   138   106   103    1
   139    74    71    1
   140    71    70    1
   141    71    72    1
   142   103   102    1
   143   103   104    1
   144   104   105    2
   145    73    72    2
