@<TRIPOS>MOLECULE
tmp/2cg5A00.pdb
 208 197 0 0 0
SMALL
GASTEIGER

@<TRIPOS>ATOM
      1  N        -15.6690   12.2300   10.5830 N.3    37  GLU37      -0.1245
      2  CA       -16.9150   11.7750    9.9520 C.3    37  GLU37       0.1567
      3  C        -16.6760   10.7880    8.8160 C.2    37  GLU37       0.2260
      4  O        -17.4810    9.9140    8.5700 O.2    37  GLU37      -0.2867
      5  CB       -17.6700   12.9720    9.4180 C.3    37  GLU37       0.0388
      6  CG       -19.1300   12.9040    9.6560 C.3    37  GLU37       0.1160
      7  CD       -19.4830   12.9930   11.1100 C.2    37  GLU37       0.3649
      8  OE1      -20.2690   12.1290   11.5470 O.co2  37  GLU37      -0.2457
      9  OE2      -18.9720   13.9000   11.8200 O.co2  37  GLU37      -0.2457
     10  N        -15.8180    7.3330   10.5200 N.3    40  ARG40      -0.1245
     11  CA       -17.0720    6.7730   11.0100 C.3    40  ARG40       0.1563
     12  C        -17.8440    6.1760    9.8590 C.2    40  ARG40       0.2260
     13  O        -18.0390    4.9720    9.8060 O.2    40  ARG40      -0.2867
     14  CB       -17.9060    7.8460   11.7070 C.3    40  ARG40       0.0307
     15  CG       -19.3050    7.4130   12.0810 C.3    40  ARG40       0.0489
     16  CD       -20.0820    8.5450   12.7590 C.3    40  ARG40       0.2205
     17  NE       -21.4980    8.4950   12.3840 N.pl3  40  ARG40      -0.0865
     18  CZ       -22.0480    9.1630   11.3660 C.cat  40  ARG40       0.5346
     19  NH1      -21.3310    9.9760   10.5880 N.pl3  40  ARG40       0.1354
     20  NH2      -23.3370    9.0500   11.1220 N.pl3  40  ARG40       0.1354
     21  N        -19.2250    1.7770    8.7370 N.3    44  PHE44      -0.1241
     22  CA       -20.5070    1.1320    8.4380 C.3    44  PHE44       0.1605
     23  C        -20.2720   -0.0390    7.5290 C.2    44  PHE44       0.2264
     24  O        -19.5360    0.0630    6.5580 O.2    44  PHE44      -0.2867
     25  CB       -21.5140    2.0780    7.7750 C.3    44  PHE44       0.0534
     26  CG       -22.1670    3.0310    8.7300 C.ar   44  PHE44      -0.0203
     27  CD1      -22.8300    2.5670    9.8500 C.ar   44  PHE44      -0.0042
     28  CD2      -22.1180    4.3720    8.5180 C.ar   44  PHE44      -0.0042
     29  CE1      -23.4320    3.4470   10.7440 C.ar   44  PHE44      -0.0003
     30  CE2      -22.7160    5.2480    9.3920 C.ar   44  PHE44      -0.0003
     31  CZ       -23.3650    4.7950   10.5080 C.ar   44  PHE44      -0.0000
     32  N        -25.6030    8.3100    6.1640 N.3    53  ALA53      -0.1245
     33  CA       -24.7260    9.1380    6.9710 C.3    53  ALA53       0.1562
     34  C        -24.0440   10.1510    6.0700 C.2    53  ALA53       0.2260
     35  O        -23.9330   11.3330    6.4030 O.2    53  ALA53      -0.2867
     36  CB       -23.7020    8.2790    7.6900 C.3    53  ALA53       0.0290
     37  N        -24.3720   14.2980    5.9680 N.3    57  ARG57      -0.1245
     38  CA       -23.2750   15.2170    6.2540 C.3    57  ARG57       0.1563
     39  C        -23.1590   16.1850    5.1300 C.2    57  ARG57       0.2260
     40  O        -22.9900   17.3740    5.3660 O.2    57  ARG57      -0.2867
     41  CB       -21.9480   14.4870    6.4070 C.3    57  ARG57       0.0307
     42  CG       -21.8920   13.5190    7.5760 C.3    57  ARG57       0.0489
     43  CD       -22.2450   14.1860    8.8930 C.3    57  ARG57       0.2205
     44  NE       -21.3380   15.2730    9.2140 N.pl3  57  ARG57      -0.0865
     45  CZ       -21.3400   15.9480   10.3530 C.cat  57  ARG57       0.5346
     46  NH1      -22.2180   15.6710   11.2940 N.pl3  57  ARG57       0.1354
     47  NH2      -20.4620   16.9200   10.5460 N.pl3  57  ARG57       0.1354
     48  N        -25.9150   18.8380    5.5920 N.3    60  ILE60      -0.1245
     49  CA       -25.5960   19.8650    6.5830 C.3    60  ILE60       0.1561
     50  C        -24.5970   20.8590    6.0030 C.2    60  ILE60       0.2260
     51  O        -24.8130   22.0750    6.0430 O.2    60  ILE60      -0.2867
     52  CB       -25.0000   19.2840    7.8620 C.3    60  ILE60       0.0252
     53  CG1      -26.0380   18.4110    8.5870 C.3    60  ILE60       0.0019
     54  CG2      -24.5050   20.4170    8.7840 C.3    60  ILE60       0.0019
     55  CD1      -25.4450   17.2620    9.3490 C.3    60  ILE60       0.0001
     56  N        -20.2740   18.1210   17.5910 N.3    79  ARG79      -0.1245
     57  CA       -21.3840   17.3790   18.1430 C.3    79  ARG79       0.1563
     58  C        -21.5540   17.6230   19.6290 C.2    79  ARG79       0.2260
     59  O        -20.5850   17.7210   20.3380 O.2    79  ARG79      -0.2867
     60  CB       -21.1510   15.9030   17.9230 C.3    79  ARG79       0.0307
     61  CG       -21.4110   15.4320   16.5340 C.3    79  ARG79       0.0489
     62  CD       -21.6150   13.9440   16.5890 C.3    79  ARG79       0.2205
     63  NE       -22.4750   13.4290   15.5180 N.pl3  79  ARG79      -0.0865
     64  CZ       -22.0140   12.8470   14.4220 C.cat  79  ARG79       0.5346
     65  NH1      -22.8550   12.4100   13.5320 N.pl3  79  ARG79       0.1354
     66  NH2      -20.7090   12.7200   14.1990 N.pl3  79  ARG79       0.1354
     67  N        -24.2410   14.4840   23.5830 N.3    82  LYS82      -0.1231
     68  CA       -25.1820   13.4390   23.2690 C.3    82  LYS82       0.1693
     69  C        -25.3050   13.2360   21.7650 C.2    82  LYS82       0.2593
     70  O        -26.2940   12.6850   21.3010 O.2    82  LYS82      -0.2718
     71  CB       -26.5370   13.7260   23.9440 C.3    82  LYS82       0.0285
     72  CG       -26.4920   13.5770   25.4640 C.3    82  LYS82       0.0035
     73  CD       -27.7130   14.1670   26.1080 C.3    82  LYS82       0.0206
     74  CE       -27.7570   15.6690   25.9230 C.3    82  LYS82       0.1093
     75  NZ       -26.6220   16.3510   26.5850 N.3    82  LYS82      -0.1314
     76  N        -24.2990   13.6900   21.0100 N.am   83  GLY83      -0.1942
     77  CA       -24.1250   13.3220   19.5930 C.3    83  GLY83       0.2014
     78  C        -24.7680   14.1840   18.5050 C.2    83  GLY83       0.2639
     79  O        -24.6840   13.8530   17.3120 O.2    83  GLY83      -0.2714
     80  N        -25.4090   15.2860   18.8790 N.am   84  LYS84      -0.1963
     81  CA       -26.1230   16.0970   17.9050 C.3    84  LYS84       0.1713
     82  C        -25.1280   16.9460   17.1600 C.2    84  LYS84       0.2458
     83  O        -24.3040   17.6080   17.7670 O.2    84  LYS84      -0.2730
     84  CB       -27.1470   16.9840   18.6030 C.3    84  LYS84       0.0311
     85  CG       -28.0090   17.7540   17.6630 C.3    84  LYS84       0.0038
     86  CD       -29.0460   18.5550   18.3980 C.3    84  LYS84       0.0206
     87  CE       -30.0130   19.2280   17.4340 C.3    84  LYS84       0.1093
     88  NZ       -31.3680   19.3220   18.0570 N.3    84  LYS84      -0.1314
     89  N        -25.1670   16.9230   15.8330 N.am   85  PRO85      -0.2727
     90  CA       -24.3820   17.9060   15.1020 C.3    85  PRO85       0.1402
     91  C        -24.7650   19.3370   15.3770 C.2    85  PRO85       0.2269
     92  O        -25.9200   19.6920   15.3110 O.2    85  PRO85      -0.2865
     93  CB       -24.6760   17.5700   13.6540 C.3    85  PRO85       0.0296
     94  CG       -24.9650   16.1940   13.6690 C.3    85  PRO85       0.0237
     95  CD       -25.7880   15.9750   14.9080 C.3    85  PRO85       0.0939
     96  N        -30.8350   19.7160   11.7740 N.3   101  ASN101     -0.1225
     97  CA       -30.9080   18.3480   12.1910 C.3   101  ASN101      0.1785
     98  C        -31.2190   17.5400   10.9730 C.2   101  ASN101      0.2597
     99  O        -31.8950   18.0410   10.0710 O.2   101  ASN101     -0.2718
    100  CB       -32.0490   18.2020   13.1950 C.3   101  ASN101      0.1169
    101  CG       -32.0210   16.9200   13.9160 C.2   101  ASN101      0.2627
    102  OD1      -33.0500   16.2800   14.0490 O.2   101  ASN101     -0.2716
    103  ND2      -30.8670   16.5330   14.4200 N.am  101  ASN101     -0.0877
    104  N        -30.7420   16.3020   10.9440 N.am  102  ILE102     -0.1966
    105  CA       -31.0550   15.4060    9.8640 C.3   102  ILE102      0.1727
    106  C        -31.6450   14.1110   10.4050 C.2   102  ILE102      0.2617
    107  O        -31.5600   13.7960   11.5920 O.2   102  ILE102     -0.2715
    108  CB       -29.8150   15.1350    8.9420 C.3   102  ILE102      0.0290
    109  CG1      -28.7800   14.2400    9.6080 C.3   102  ILE102      0.0022
    110  CG2      -29.1510   16.4100    8.4970 C.3   102  ILE102      0.0023
    111  CD1      -28.7960   12.8390    9.0770 C.3   102  ILE102      0.0001
    112  N        -32.2770   13.3690    9.5190 N.am  103  SER103     -0.1936
    113  CA       -32.6770   12.0370    9.8160 C.3   103  SER103      0.2055
    114  C        -32.3410   11.2160    8.6070 C.2   103  SER103      0.2643
    115  O        -32.2430   11.7480    7.5000 O.2   103  SER103     -0.2714
    116  CB       -34.1620   12.0090   10.0560 C.3   103  SER103      0.2130
    117  OG       -34.5600   10.7650   10.6090 O.3   103  SER103     -0.2179
    118  N        -32.1410    9.9250    8.8070 N.am  104  HIS104     -0.1959
    119  CA       -32.0260    9.0160    7.6920 C.3   104  HIS104      0.1787
    120  C        -32.5410    7.6280    8.0040 C.2   104  HIS104      0.2620
    121  O        -31.8450    6.7930    8.5410 O.2   104  HIS104     -0.2715
    122  CB       -30.6070    8.9670    7.1270 C.3   104  HIS104      0.0785
    123  CG       -29.5170    8.9040    8.1540 C.ar  104  HIS104      0.0821
    124  ND1      -29.3810    7.8650    9.0480 N.ar  104  HIS104     -0.2267
    125  CD2      -28.4620    9.7250    8.3740 C.ar  104  HIS104      0.1154
    126  CE1      -28.2980    8.0490    9.7810 C.ar  104  HIS104      0.1986
    127  NE2      -27.7310    9.1820    9.4020 N.ar  104  HIS104     -0.2212
    128  N        -33.7800    7.3830    7.6430 N.am  105  GLN105     -0.1977
    129  CA       -34.3360    6.0780    7.7160 C.3   105  GLN105      0.1601
    130  C        -34.9340    5.8830    6.3380 C.2   105  GLN105      0.2287
    131  O        -35.0480    6.8230    5.5670 O.2   105  GLN105     -0.2864
    132  CB       -35.3710    6.0320    8.8440 C.3   105  GLN105      0.0394
    133  CG       -35.5500    4.6500    9.5110 C.3   105  GLN105      0.0908
    134  CD       -36.4690    3.7440    8.7200 C.2   105  GLN105      0.2608
    135  OE1      -37.2210    4.2120    7.8760 O.2   105  GLN105     -0.2717
    136  NE2      -36.4190    2.4490    8.9880 N.am  105  GLN105     -0.0878
    137  N        -37.3530   13.8420   11.9880 N.3   122  ASP122     -0.1239
    138  CA       -37.3000   12.3890   11.8960 C.3   122  ASP122      0.1674
    139  C        -38.0960   11.8100   10.7440 C.2   122  ASP122      0.2266
    140  O        -39.2840   12.0960   10.5750 O.2   122  ASP122     -0.2867
    141  CB       -37.7920   11.7210   13.1670 C.3   122  ASP122      0.1410
    142  CG       -37.3280   10.2970   13.2480 C.2   122  ASP122      0.3668
    143  OD1      -36.1030   10.1400   13.0610 O.co2 122  ASP122     -0.2456
    144  OD2      -38.1500    9.3610   13.4600 O.co2 122  ASP122     -0.2456
    145  N        -39.3470    8.2480    8.6810 N.3   124  MET124     -0.1245
    146  CA       -39.6020    6.8520    8.9240 C.3   124  MET124      0.1570
    147  C        -40.3520    6.2050    7.7520 C.2   124  MET124      0.2261
    148  O        -41.3910    6.7040    7.3080 O.2   124  MET124     -0.2867
    149  CB       -40.4020    6.7120   10.2190 C.3   124  MET124      0.0387
    150  CG       -39.5510    6.8100   11.4900 C.3   124  MET124      0.0595
    151  SD       -38.5300    5.3320   11.6770 S.3   124  MET124     -0.1393
    152  CE       -37.1710    5.9550   12.6690 C.3   124  MET124      0.0692
    153  N        -44.0700    7.3260   16.0910 N.3   170  TRP170     -0.1241
    154  CA       -42.6600    7.2280   16.4310 C.3   170  TRP170      0.1605
    155  C        -41.9190    8.4460   15.9500 C.2   170  TRP170      0.2264
    156  O        -41.1570    9.0300   16.6860 O.2   170  TRP170     -0.2867
    157  CB       -42.0410    5.9940   15.7940 C.3   170  TRP170      0.0550
    158  CG       -40.6010    5.9800   15.9430 C.ar  170  TRP170      0.0003
    159  CD1      -39.7030    6.5610   15.1240 C.ar  170  TRP170      0.0946
    160  CD2      -39.8580    5.3630   16.9900 C.ar  170  TRP170      0.0152
    161  NE1      -38.4300    6.3510   15.5930 N.ar  170  TRP170     -0.2442
    162  CE2      -38.5000    5.6070   16.7360 C.ar  170  TRP170      0.0810
    163  CE3      -40.2080    4.6240   18.1130 C.ar  170  TRP170      0.0012
    164  CZ2      -37.4880    5.1490   17.5690 C.ar  170  TRP170      0.0191
    165  CZ3      -39.1970    4.1710   18.9550 C.ar  170  TRP170      0.0001
    166  CH2      -37.8580    4.4380   18.6790 C.ar  170  TRP170      0.0015
    167  N        -39.4230   11.0510   17.9950 N.3   174  GLU174     -0.1245
    168  CA       -38.0420   11.3280   17.6610 C.3   174  GLU174      0.1567
    169  C        -37.7810   12.7820   17.3080 C.2   174  GLU174      0.2260
    170  O        -36.7310   13.3330   17.6570 O.2   174  GLU174     -0.2867
    171  CB       -37.6330   10.4970   16.4570 C.3   174  GLU174      0.0388
    172  CG       -37.3420    9.0760   16.7680 C.3   174  GLU174      0.1160
    173  CD       -36.3290    8.9590   17.8750 C.2   174  GLU174      0.3649
    174  OE1      -35.1280    9.2320   17.6460 O.co2 174  GLU174     -0.2457
    175  OE2      -36.7520    8.5960   18.9820 O.co2 174  GLU174     -0.2457
    176  N        -37.4890   14.5530   20.4530 N.3   177  ILE177     -0.1231
    177  CA       -36.2860   14.0710   21.1420 C.3   177  ILE177      0.1692
    178  C        -35.0190   14.6170   20.5460 C.2   177  ILE177      0.2591
    179  O        -34.0590   14.9410   21.2670 O.2   177  ILE177     -0.2718
    180  CB       -36.2200   12.5360   21.0810 C.3   177  ILE177      0.0266
    181  CG1      -37.0510   11.9990   22.2000 C.3   177  ILE177      0.0019
    182  CG2      -34.7980   12.0160   21.2180 C.3   177  ILE177      0.0020
    183  CD1      -36.6910   12.6440   23.4740 C.3   177  ILE177      0.0001
    184  N        -35.0300   14.6910   19.2230 N.am  178  LYS178     -0.1980
    185  CA       -33.9080   15.2170   18.4770 C.3   178  LYS178      0.1596
    186  C        -33.8980   16.7280   18.5370 C.2   178  LYS178      0.2287
    187  O        -32.8460   17.3320   18.6060 O.2   178  LYS178     -0.2864
    188  CB       -33.9390   14.6780   17.0400 C.3   178  LYS178      0.0298
    189  CG       -33.5970   13.1700   16.9850 C.3   178  LYS178      0.0038
    190  CD       -33.7520   12.5860   15.6410 C.3   178  LYS178      0.0206
    191  CE       -32.6780   13.0170   14.6490 C.3   178  LYS178      0.1093
    192  NZ       -33.0880   12.5520   13.2670 N.3   178  LYS178     -0.1314
    193  N        -32.5260   17.3090   21.7490 N.3   181  GLY181     -0.1225
    194  CA       -31.1430   16.8690   21.6360 C.3   181  GLY181      0.1811
    195  C        -30.7280   15.8630   22.6890 C.2   181  GLY181      0.2280
    196  O        -29.5410   15.6540   22.8880 O.2   181  GLY181     -0.2866
    197  N        -31.4250   12.3370   23.2680 N.3   183  GLY183     -0.1210
    198  CA       -30.9300   11.0190   22.9180 C.3   183  GLY183      0.1956
    199  C        -31.9640    9.9410   23.1740 C.2   183  GLY183      0.2611
    200  O        -33.1570   10.2320   23.3510 O.2   183  GLY183     -0.2717
    201  N        -31.5080    8.6890   23.1820 N.am  184  LEU184     -0.1979
    202  CA       -32.3850    7.5600   23.4890 C.3   184  LEU184      0.1596
    203  C        -32.8380    7.5670   24.9540 C.2   184  LEU184      0.2287
    204  O        -33.8130    6.9150   25.3050 O.2   184  LEU184     -0.2864
    205  CB       -31.6880    6.2150   23.1830 C.3   184  LEU184      0.0297
    206  CG       -31.5350    5.7930   21.7180 C.3   184  LEU184      0.0022
    207  CD1      -30.5630    4.5970   21.5750 C.3   184  LEU184      0.0001
    208  CD2      -32.8940    5.4950   21.0990 C.3   184  LEU184      0.0001
@<TRIPOS>BOND
     1    39    40    2
     2    39    38    1
     3   131   130    2
     4    48    49    1
     5    37    38    1
     6    50    51    2
     7    50    49    1
     8    34    35    2
     9    34    33    1
    10    32    33    1
    11    38    41    1
    12   130   129    1
    13    41    42    1
    14    24    23    2
    15    49    52    1
    16    33    36    1
    17   122   119    1
    18   122   123    1
    19   148   147    2
    20   115   114    2
    21    23    22    1
    22    42    43    1
    23   128   129    1
    24   128   120   am
    25   119   120    1
    26   119   118    1
    27   129   132    1
    28   147   146    1
    29    25    22    1
    30    25    26    1
    31    52    53    1
    32    52    54    1
    33   135   134    2
    34   120   121    2
    35   123   125   ar
    36   123   124   ar
    37   125   127   ar
    38    22    21    1
    39   110   108    1
    40    28    26   ar
    41    28    30   ar
    42     4     3    2
    43    53    55    1
    44   114   118   am
    45   114   113    1
    46   145   146    1
    47   134   136   am
    48   134   133    1
    49    26    27   ar
    50     3     2    1
    51   132   133    1
    52    43    44    1
    53   146   149    1
    54   108   109    1
    55   108   105    1
    56   124   126   ar
    57   111   109    1
    58    44    45    2
    59    30    31   ar
    60   127   126   ar
    61     5     6    1
    62     5     2    1
    63   112   113    1
    64   112   106   am
    65     6     7    1
    66    13    12    2
    67   113   116    1
    68    27    29   ar
    69    12    11    1
    70   105   106    1
    71   105   104    1
    72     2     1    1
    73   116   117    1
    74    99    98    2
    75   149   150    1
    76    45    47    1
    77    45    46    1
    78   106   107    2
    79    31    29   ar
    80    10    11    1
    81   140   139    2
    82    19    18    1
    83   139   138    1
    84   104    98   am
    85    98    97    1
    86    11    14    1
    87     7     8   ar
    88     7     9   ar
    89    20    18    1
    90    18    17    2
    91   150   151    1
    92   151   152    1
    93    14    15    1
    94    96    97    1
    95   138   137    1
    96   138   141    1
    97    15    16    1
    98    97   100    1
    99    17    16    1
   100   143   142   ar
   101   141   142    1
   102   100   101    1
   103   142   144   ar
   104   192   191    1
   105    65    64    1
   106    93    94    1
   107    93    90    1
   108    94    95    1
   109   101   102    2
   110   101   103   am
   111    66    64    1
   112    64    63    2
   113   191   190    1
   114    95    89    1
   115    90    91    1
   116    90    89    1
   117   159   161   ar
   118   159   158   ar
   119    92    91    2
   120    63    62    1
   121   161   162   ar
   122   190   189    1
   123   157   158    1
   124   157   154    1
   125    89    82   am
   126   158   160   ar
   127   155   154    1
   128   155   156    2
   129   153   154    1
   130   171   172    1
   131   171   168    1
   132    61    62    1
   133    61    60    1
   134   162   160   ar
   135   162   164   ar
   136   172   173    1
   137   189   188    1
   138   160   163   ar
   139   188   185    1
   140    82    83    2
   141    82    81    1
   142   169   170    2
   143   169   168    1
   144    79    78    2
   145    87    88    1
   146    87    86    1
   147   164   166   ar
   148    56    57    1
   149   174   173   ar
   150   168   167    1
   151    85    86    1
   152    85    84    1
   153   173   175   ar
   154    81    84    1
   155    81    80    1
   156    60    57    1
   157   163   165   ar
   158    57    58    1
   159   185   186    1
   160   185   184    1
   161    78    80   am
   162    78    77    1
   163   186   187    2
   164   166   165   ar
   165   184   178   am
   166    77    76    1
   167    58    59    2
   168   176   177    1
   169   178   177    1
   170   178   179    2
   171    76    69   am
   172   180   177    1
   173   180   182    1
   174   180   181    1
   175   208   206    1
   176    70    69    2
   177   207   206    1
   178   194   193    1
   179   194   195    1
   180   206   205    1
   181    69    68    1
   182   181   183    1
   183   195   196    2
   184   198   199    1
   185   198   197    1
   186   199   201   am
   187   199   200    2
   188   201   202    1
   189   205   202    1
   190    68    67    1
   191    68    71    1
   192   202   203    1
   193    71    72    1
   194   203   204    2
   195    72    73    1
   196    74    73    1
   197    74    75    1
