@<TRIPOS>MOLECULE
tmp/2cg9B00.pdb
 203 194 0 0 0
SMALL
GASTEIGER

@<TRIPOS>ATOM
      1  N       -140.4040  -70.6510   52.5500 N.3    32  GLU32      -0.1231
      2  CA      -141.7180  -70.0380   52.6960 C.3    32  GLU32       0.1699
      3  C       -142.6830  -70.7670   53.6220 C.2    32  GLU32       0.2592
      4  O       -143.4600  -70.1260   54.3250 O.2    32  GLU32      -0.2718
      5  CB      -142.3810  -69.8290   51.3430 C.3    32  GLU32       0.0402
      6  CG      -141.8800  -68.5980   50.6230 C.3    32  GLU32       0.1161
      7  CD      -142.1060  -67.2990   51.3900 C.2    32  GLU32       0.3649
      8  OE1     -143.2590  -67.0220   51.7840 O.co2  32  GLU32      -0.2457
      9  OE2     -141.1260  -66.5430   51.5720 O.co2  32  GLU32      -0.2457
     10  N       -142.6410  -72.0940   53.6230 N.am   33  LEU33      -0.1980
     11  CA      -143.5590  -72.8800   54.4530 C.3    33  LEU33       0.1596
     12  C       -143.2070  -72.8480   55.9400 C.2    33  LEU33       0.2287
     13  O       -144.0760  -72.7600   56.8170 O.2    33  LEU33      -0.2864
     14  CB      -143.5760  -74.3250   53.9750 C.3    33  LEU33       0.0297
     15  CG      -144.3000  -74.5870   52.6600 C.3    33  LEU33       0.0022
     16  CD1     -144.3010  -76.0840   52.3840 C.3    33  LEU33       0.0001
     17  CD2     -145.7320  -74.0110   52.6480 C.3    33  LEU33       0.0001
     18  N       -143.9400  -69.5490   57.2420 N.3    36  ASN36      -0.1225
     19  CA      -145.3680  -69.5640   57.5060 C.3    36  ASN36       0.1785
     20  C       -145.6770  -70.3850   58.7690 C.2    36  ASN36       0.2597
     21  O       -146.7040  -70.1780   59.4200 O.2    36  ASN36      -0.2718
     22  CB      -146.1520  -70.0770   56.2650 C.3    36  ASN36       0.1169
     23  CG      -146.5300  -68.9420   55.2450 C.2    36  ASN36       0.2627
     24  OD1     -147.6430  -68.9170   54.7390 O.2    36  ASN36      -0.2716
     25  ND2     -145.5980  -68.0410   54.9420 N.am   36  ASN36      -0.0877
     26  N       -144.7750  -71.3000   59.1190 N.am   37  ALA37      -0.1979
     27  CA      -144.9430  -72.1660   60.3020 C.3    37  ALA37       0.1597
     28  C       -144.4050  -71.5320   61.5780 C.2    37  ALA37       0.2287
     29  O       -145.0050  -71.6650   62.6350 O.2    37  ALA37      -0.2864
     30  CB      -144.2990  -73.5300   60.0770 C.3    37  ALA37       0.0319
     31  N       -144.3500  -68.2400   61.9030 N.3    39  ASP39      -0.1225
     32  CA      -145.5200  -67.3770   62.0150 C.3    39  ASP39       0.1805
     33  C       -146.6030  -67.9630   62.9250 C.2    39  ASP39       0.2597
     34  O       -147.2110  -67.2450   63.7140 O.2    39  ASP39      -0.2718
     35  CB      -146.1190  -67.1290   60.6250 C.3    39  ASP39       0.1424
     36  CG      -145.6120  -65.8400   59.9620 C.2    39  ASP39       0.3668
     37  OD1     -146.2940  -65.3820   59.0070 O.co2  39  ASP39      -0.2456
     38  OD2     -144.5510  -65.2900   60.3790 O.co2  39  ASP39      -0.2456
     39  N       -146.8340  -69.2680   62.8140 N.am   40  ALA40      -0.1979
     40  CA      -147.9020  -69.9320   63.5520 C.3    40  ALA40       0.1597
     41  C       -147.5830  -70.1330   65.0350 C.2    40  ALA40       0.2287
     42  O       -148.3920  -69.8070   65.9000 O.2    40  ALA40      -0.2864
     43  CB      -148.2470  -71.2640   62.8930 C.3    40  ALA40       0.0319
     44  N       -146.1600  -78.8020   62.2760 N.3    78  ASP78      -0.1239
     45  CA      -145.9510  -77.6720   63.1860 C.3    78  ASP78       0.1674
     46  C       -146.9730  -77.6410   64.3180 C.2    78  ASP78       0.2266
     47  O       -148.1560  -77.9200   64.0990 O.2    78  ASP78      -0.2867
     48  CB      -145.9550  -76.3330   62.4410 C.3    78  ASP78       0.1410
     49  CG      -147.3190  -75.9720   61.8780 C.2    78  ASP78       0.3668
     50  OD1     -148.1640  -75.4170   62.6310 O.co2  78  ASP78      -0.2456
     51  OD2     -147.5230  -76.2310   60.6660 O.co2  78  ASP78      -0.2456
     52  N       -150.3800  -72.4140   66.0670 N.3    81  ILE81      -0.1231
     53  CA      -151.7820  -72.2050   66.4280 C.3    81  ILE81       0.1692
     54  C       -152.7990  -73.0320   65.6200 C.2    81  ILE81       0.2593
     55  O       -153.8380  -73.4230   66.1600 O.2    81  ILE81      -0.2718
     56  CB      -152.1380  -70.7000   66.4430 C.3    81  ILE81       0.0266
     57  CG1     -153.6320  -70.4800   66.6690 C.3    81  ILE81       0.0019
     58  CG2     -151.7090  -70.0470   65.1660 C.3    81  ILE81       0.0020
     59  CD1     -154.0370  -69.0220   66.6580 C.3    81  ILE81       0.0001
     60  N       -152.4990  -73.3050   64.3470 N.am   82  GLY82      -0.1942
     61  CA      -153.4150  -74.0490   63.4540 C.3    82  GLY82       0.2014
     62  C       -154.7050  -73.3020   63.1500 C.2    82  GLY82       0.2638
     63  O       -155.0720  -72.3830   63.8720 O.2    82  GLY82      -0.2714
     64  N       -155.4110  -73.6860   62.0970 N.am   83  MET83      -0.1976
     65  CA      -156.5800  -72.9180   61.6880 C.3    83  MET83       0.1605
     66  C       -157.8830  -73.6400   61.9420 C.2    83  MET83       0.2287
     67  O       -157.9380  -74.8680   61.8800 O.2    83  MET83      -0.2864
     68  CB      -156.4780  -72.5630   60.2130 C.3    83  MET83       0.0413
     69  CG      -155.4200  -71.5310   59.9200 C.3    83  MET83       0.0598
     70  SD      -154.6730  -71.7640   58.2980 S.3    83  MET83      -0.1393
     71  CE      -153.8100  -73.3330   58.4930 C.3    83  MET83       0.0692
     72  N       -158.5080  -67.4550   55.0410 N.3    91  ASN91      -0.1225
     73  CA      -157.0860  -67.1120   54.9240 C.3    91  ASN91       0.1785
     74  C       -156.3620  -67.7550   53.7460 C.2    91  ASN91       0.2597
     75  O       -155.1880  -67.4590   53.4940 O.2    91  ASN91      -0.2718
     76  CB      -156.3440  -67.3800   56.2450 C.3    91  ASN91       0.1169
     77  CG      -156.5750  -66.2810   57.2790 C.2    91  ASN91       0.2627
     78  OD1     -155.9150  -65.2390   57.2540 O.2    91  ASN91      -0.2716
     79  ND2     -157.5210  -66.5070   58.1880 N.am   91  ASN91      -0.0877
     80  N       -157.0590  -68.6280   53.0240 N.am   92  LEU92      -0.1980
     81  CA      -156.4870  -69.2410   51.8210 C.3    92  LEU92       0.1596
     82  C       -157.1860  -68.7610   50.5030 C.2    92  LEU92       0.2287
     83  O       -157.3200  -69.5090   49.5320 O.2    92  LEU92      -0.2864
     84  CB      -156.4090  -70.7720   51.9790 C.3    92  LEU92       0.0297
     85  CG      -155.5640  -71.4500   53.0930 C.3    92  LEU92       0.0022
     86  CD1     -154.0940  -71.6160   52.7450 C.3    92  LEU92       0.0001
     87  CD2     -155.6760  -70.8440   54.4770 C.3    92  LEU92       0.0001
     88  N       -156.2620  -61.2650   52.9470 N.3    97  LYS97      -0.1231
     89  CA      -156.1810  -62.1700   54.0810 C.3    97  LYS97       0.1693
     90  C       -154.7410  -62.7240   54.2660 C.2    97  LYS97       0.2593
     91  O       -154.2290  -63.5040   53.4440 O.2    97  LYS97      -0.2718
     92  CB      -157.2970  -63.2610   54.0780 C.3    97  LYS97       0.0285
     93  CG      -157.7090  -63.8750   52.7180 C.3    97  LYS97       0.0035
     94  CD      -159.0140  -63.2730   52.1340 C.3    97  LYS97       0.0206
     95  CE      -159.2850  -63.7320   50.6700 C.3    97  LYS97       0.1093
     96  NZ      -159.5910  -65.1900   50.4940 N.3    97  LYS97      -0.1314
     97  N       -154.0980  -62.2480   55.3340 N.am   98  SER98      -0.1938
     98  CA      -152.8220  -62.7650   55.8160 C.3    98  SER98       0.2055
     99  C       -152.8590  -62.8230   57.3540 C.2    98  SER98       0.2643
    100  O       -153.6010  -62.0740   57.9930 O.2    98  SER98      -0.2714
    101  CB      -151.6640  -61.8950   55.3210 C.3    98  SER98       0.2130
    102  OG      -150.4190  -62.5690   55.4290 O.3    98  SER98      -0.2179
    103  N       -152.0890  -63.7410   57.9420 N.am   99  GLY99      -0.1954
    104  CA      -151.8570  -63.7740   59.3890 C.3    99  GLY99       0.1869
    105  C       -150.9470  -62.6110   59.6770 C.2    99  GLY99       0.2309
    106  O       -149.7670  -62.7680   59.9680 O.2    99  GLY99      -0.2863
    107  N       -153.0540  -59.3240   59.9220 N.3   101  LYS101     -0.1245
    108  CA      -154.1880  -58.8250   60.6980 C.3   101  LYS101      0.1561
    109  C       -153.9690  -59.1070   62.1890 C.2   101  LYS101      0.2260
    110  O       -154.1180  -58.2200   63.0400 O.2   101  LYS101     -0.2867
    111  CB      -155.4970  -59.4680   60.2120 C.3   101  LYS101      0.0271
    112  CG      -155.4920  -61.0130   60.1100 C.3   101  LYS101      0.0035
    113  CD      -156.2270  -61.6940   61.2710 C.3   101  LYS101      0.0206
    114  CE      -156.2350  -63.2180   61.1150 C.3   101  LYS101      0.1093
    115  NZ      -157.1210  -63.8720   62.1180 N.3   101  LYS101     -0.1314
    116  N       -144.1480  -61.5680   57.6710 N.3   117  GLY117     -0.1210
    117  CA      -144.5780  -62.3210   56.5260 C.3   117  GLY117      0.1956
    118  C       -145.9510  -61.8150   56.1300 C.2   117  GLY117      0.2612
    119  O       -146.9350  -62.0550   56.8270 O.2   117  GLY117     -0.2717
    120  N       -146.0140  -61.0880   55.0170 N.am  118  GLN118     -0.1965
    121  CA      -147.2780  -60.5710   54.5160 C.3   118  GLN118      0.1733
    122  C       -147.4130  -61.0280   53.0970 C.2   118  GLN118      0.2616
    123  O       -146.9880  -62.1130   52.7430 O.2   118  GLN118     -0.2715
    124  CB      -147.3260  -59.0400   54.5470 C.3   118  GLN118      0.0408
    125  CG      -146.8120  -58.4010   55.8130 C.3   118  GLN118      0.0908
    126  CD      -145.2870  -58.3020   55.8540 C.2   118  GLN118      0.2608
    127  OE1     -144.6750  -58.3920   56.9270 O.2   118  GLN118     -0.2717
    128  NE2     -144.6670  -58.1240   54.6850 N.am  118  GLN118     -0.0878
    129  N       -147.9860  -60.1710   52.2700 N.am  119  PHE119     -0.1960
    130  CA      -148.1600  -60.4710   50.8640 C.3   119  PHE119      0.1771
    131  C       -149.2570  -61.4840   50.8150 C.2   119  PHE119      0.2620
    132  O       -150.2230  -61.3210   50.0820 O.2   119  PHE119     -0.2715
    133  CB      -146.8700  -61.0190   50.2070 C.3   119  PHE119      0.0574
    134  CG      -145.6730  -60.0920   50.3150 C.ar  119  PHE119     -0.0200
    135  CD1     -145.8260  -58.7100   50.2600 C.ar  119  PHE119     -0.0042
    136  CD2     -144.3940  -60.6110   50.4590 C.ar  119  PHE119     -0.0042
    137  CE1     -144.7330  -57.8690   50.3780 C.ar  119  PHE119     -0.0003
    138  CE2     -143.2890  -59.7740   50.5680 C.ar  119  PHE119     -0.0003
    139  CZ      -143.4590  -58.4030   50.5300 C.ar  119  PHE119     -0.0000
    140  N       -149.1150  -62.5160   51.6320 N.am  120  GLY120     -0.1940
    141  CA      -150.1290  -63.5300   51.7370 C.3   120  GLY120      0.2014
    142  C       -150.1340  -64.3850   50.4950 C.2   120  GLY120      0.2639
    143  O       -151.2000  -64.7840   50.0180 O.2   120  GLY120     -0.2714
    144  N       -148.9430  -64.6500   49.9630 N.am  121  VAL121     -0.1963
    145  CA      -148.8090  -65.5440   48.8230 C.3   121  VAL121      0.1727
    146  C       -147.9740  -66.7530   49.1720 C.2   121  VAL121      0.2617
    147  O       -148.3410  -67.8720   48.8330 O.2   121  VAL121     -0.2715
    148  CB      -148.2280  -64.8340   47.5770 C.3   121  VAL121      0.0290
    149  CG1     -148.8650  -63.5040   47.4140 C.3   121  VAL121      0.0023
    150  CG2     -146.7100  -64.6570   47.6490 C.3   121  VAL121      0.0023
    151  N       -146.8660  -66.5040   49.8730 N.am  122  GLY122     -0.1940
    152  CA      -145.8380  -67.4990   50.1910 C.3   122  GLY122      0.2014
    153  C       -146.2770  -68.9460   50.2150 C.2   122  GLY122      0.2639
    154  O       -145.5000  -69.8310   49.8790 O.2   122  GLY122     -0.2714
    155  N       -147.5260  -69.1810   50.6150 N.am  123  PHE123     -0.1959
    156  CA      -148.0810  -70.5240   50.7390 C.3   123  PHE123      0.1771
    157  C       -148.1690  -71.2070   49.3960 C.2   123  PHE123      0.2619
    158  O       -147.7710  -72.3640   49.2550 O.2   123  PHE123     -0.2715
    159  CB      -149.4720  -70.4710   51.3590 C.3   123  PHE123      0.0574
    160  CG      -150.1920  -71.7880   51.3540 C.ar  123  PHE123     -0.0200
    161  CD1     -149.7830  -72.8290   52.1830 C.ar  123  PHE123     -0.0042
    162  CD2     -151.2890  -71.9870   50.5340 C.ar  123  PHE123     -0.0042
    163  CE1     -150.4560  -74.0480   52.1940 C.ar  123  PHE123     -0.0003
    164  CE2     -151.9670  -73.2070   50.5330 C.ar  123  PHE123     -0.0003
    165  CZ      -151.5490  -74.2350   51.3670 C.ar  123  PHE123     -0.0000
    166  N       -148.6900  -70.4740   48.4140 N.am  124  TYR124     -0.1974
    167  CA      -148.9940  -71.0140   47.0940 C.3   124  TYR124      0.1639
    168  C       -147.7320  -71.4620   46.3930 C.2   124  TYR124      0.2290
    169  O       -147.7710  -72.3470   45.5450 O.2   124  TYR124     -0.2864
    170  CB      -149.7510  -69.9780   46.2810 C.3   124  TYR124      0.0560
    171  CG      -150.9530  -69.4540   47.0290 C.ar  124  TYR124     -0.0198
    172  CD1     -150.9440  -68.1880   47.5910 C.ar  124  TYR124     -0.0009
    173  CD2     -152.0850  -70.2400   47.2070 C.ar  124  TYR124     -0.0009
    174  CE1     -152.0300  -67.7120   48.2910 C.ar  124  TYR124      0.0417
    175  CE2     -153.1820  -69.7650   47.8970 C.ar  124  TYR124      0.0417
    176  CZ      -153.1460  -68.4990   48.4370 C.ar  124  TYR124      0.1957
    177  OH      -154.2210  -68.0090   49.1410 O.3   124  TYR124     -0.2866
    178  N       -150.5700  -77.6260   62.6980 N.3   170  THR170     -0.1218
    179  CA      -150.7900  -77.9680   61.3010 C.3   170  THR170      0.1862
    180  C       -149.7500  -78.9530   60.7350 C.2   170  THR170      0.2287
    181  O       -148.5650  -78.9390   61.0990 O.2   170  THR170     -0.2866
    182  CB      -150.8420  -76.6850   60.4510 C.3   170  THR170      0.1770
    183  OG1     -151.5500  -75.6610   61.1670 O.3   170  THR170     -0.2211
    184  CG2     -151.5390  -76.9440   59.1500 C.3   170  THR170      0.0375
    185  N       -148.4760  -80.2900   56.8760 N.3   172  LEU172     -0.1245
    186  CA      -148.5430  -80.0510   55.4370 C.3   172  LEU172      0.1561
    187  C       -148.0490  -81.2430   54.6310 C.2   172  LEU172      0.2260
    188  O       -146.9060  -81.6740   54.7730 O.2   172  LEU172     -0.2867
    189  CB      -147.7360  -78.8100   55.0680 C.3   172  LEU172      0.0270
    190  CG      -148.5430  -77.5890   54.6550 C.3   172  LEU172      0.0019
    191  CD1     -149.5670  -77.2220   55.7120 C.3   172  LEU172      0.0001
    192  CD2     -147.5990  -76.4340   54.3700 C.3   172  LEU172      0.0001
    193  N       -139.2980  -61.4580   48.2910 N.3   334  ARG334     -0.1245
    194  CA      -138.3510  -62.2040   49.1430 C.3   334  ARG334      0.1563
    195  C       -137.0100  -62.6520   48.5630 C.2   334  ARG334      0.2260
    196  O       -136.7100  -63.8430   48.5840 O.2   334  ARG334     -0.2867
    197  CB      -139.0560  -63.3940   49.8030 C.3   334  ARG334      0.0307
    198  CG      -140.3490  -63.0420   50.5300 C.3   334  ARG334      0.0489
    199  CD      -140.0740  -62.4340   51.8920 C.3   334  ARG334      0.2205
    200  NE      -141.2230  -61.7160   52.4300 N.pl3 334  ARG334     -0.0865
    201  CZ      -142.2290  -62.2720   53.1030 C.cat 334  ARG334      0.5346
    202  NH1     -142.2570  -63.5770   53.3170 N.pl3 334  ARG334      0.1354
    203  NH2     -143.2210  -61.5120   53.5520 N.pl3 334  ARG334      0.1354
@<TRIPOS>BOND
     1   169   168    2
     2   170   171    1
     3   170   167    1
     4   168   167    1
     5   171   173   ar
     6   171   172   ar
     7   167   166    1
     8   173   175   ar
     9   149   148    1
    10   148   150    1
    11   148   145    1
    12   172   174   ar
    13   175   176   ar
    14   174   176   ar
    15   193   194    1
    16   166   157   am
    17   176   177    1
    18   195   196    2
    19   195   194    1
    20   145   146    1
    21   145   144    1
    22   147   146    2
    23   194   197    1
    24   146   151   am
    25   158   157    2
    26   157   156    1
    27    83    82    2
    28   197   198    1
    29   151   152    1
    30   154   153    2
    31   144   142   am
    32   143   142    2
    33   132   131    2
    34   152   153    1
    35   133   134    1
    36   133   130    1
    37   153   155   am
    38   135   134   ar
    39   135   137   ar
    40   134   136   ar
    41   137   139   ar
    42   136   138   ar
    43    96    95    1
    44   142   141    1
    45    82    81    1
    46   139   138   ar
    47   198   199    1
    48   164   162   ar
    49   164   165   ar
    50   162   160   ar
    51   155   156    1
    52     6     5    1
    53     6     7    1
    54    95    94    1
    55   156   159    1
    56   131   130    1
    57   131   140   am
    58   130   129    1
    59     5     2    1
    60   160   159    1
    61   160   161   ar
    62   165   163   ar
    63     7     9   ar
    64     7     8   ar
    65   140   141    1
    66    81    84    1
    67    81    80    1
    68   199   200    1
    69    84    85    1
    70    94    93    1
    71   161   163   ar
    72   129   122   am
    73    16    15    1
    74   200   201    2
    75     1     2    1
    76    17    15    1
    77    15    14    1
    78     2     3    1
    79    93    92    1
    80   123   122    2
    81    86    85    1
    82    88    89    1
    83    80    74   am
    84    85    87    1
    85   122   121    1
    86   201   202    1
    87   201   203    1
    88    91    90    2
    89    75    74    2
    90     3    10   am
    91     3     4    2
    92    10    11    1
    93    74    73    1
    94    14    11    1
    95    92    89    1
    96    89    90    1
    97    90    97   am
    98   192   190    1
    99    11    12    1
   100   121   124    1
   101   121   120    1
   102   124   125    1
   103   187   188    2
   104   187   186    1
   105   190   189    1
   106   190   191    1
   107   128   126   am
   108    24    23    2
   109    73    72    1
   110    73    76    1
   111    25    23   am
   112   120   118   am
   113   189   186    1
   114    23    22    1
   115   101   102    1
   116   101    98    1
   117    97    98    1
   118   186   185    1
   119   125   126    1
   120    98    99    1
   121   126   127    2
   122    12    13    2
   123   118   117    1
   124   118   119    2
   125    76    77    1
   126    22    19    1
   127   117   116    1
   128    18    19    1
   129    78    77    2
   130    77    79   am
   131    99   103   am
   132    99   100    2
   133    19    20    1
   134   103   104    1
   135    70    71    1
   136    70    69    1
   137    20    26   am
   138    20    21    2
   139    37    36   ar
   140    26    27    1
   141   184   182    1
   142   104   105    1
   143   105   106    2
   144    69    68    1
   145   107   108    1
   146    36    38   ar
   147    36    35    1
   148    30    27    1
   149   112   111    1
   150   112   113    1
   151   111   108    1
   152    68    65    1
   153    27    28    1
   154   182   183    1
   155   182   179    1
   156    35    32    1
   157    51    49   ar
   158   108   109    1
   159   180   181    2
   160   180   179    1
   161   114   113    1
   162   114   115    1
   163   179   178    1
   164    28    29    2
   165    65    66    1
   166    65    64    1
   167    49    48    1
   168    49    50   ar
   169    67    66    2
   170    31    32    1
   171    32    33    1
   172    64    62   am
   173   109   110    2
   174    44    45    1
   175    48    45    1
   176    39    33   am
   177    39    40    1
   178    43    40    1
   179    33    34    2
   180    62    61    1
   181    62    63    2
   182    45    46    1
   183    61    60    1
   184    40    41    1
   185    47    46    2
   186    60    54   am
   187    41    42    2
   188    58    56    1
   189    54    55    2
   190    54    53    1
   191    52    53    1
   192    53    56    1
   193    56    57    1
   194    59    57    1
