@<TRIPOS>MOLECULE
tmp/2cgfA00.pdb
 125 114 0 0 0
SMALL
GASTEIGER

@<TRIPOS>ATOM
      1  N        -20.0290   25.6440    0.1050 N.3    33  LEU33      -0.1245
      2  CA       -18.9050   26.4500   -0.3880 C.3    33  LEU33       0.1561
      3  C        -18.3100   25.8960   -1.6920 C.2    33  LEU33       0.2260
      4  O        -17.9380   26.6590   -2.5510 O.2    33  LEU33      -0.2867
      5  CB       -17.8380   26.6270    0.7250 C.3    33  LEU33       0.0270
      6  CG       -18.4080   27.1890    2.0480 C.3    33  LEU33       0.0019
      7  CD1      -17.2840   27.4160    3.0420 C.3    33  LEU33       0.0001
      8  CD2      -19.2740   28.4980    1.8550 C.3    33  LEU33       0.0001
      9  N        -20.8520   26.9620   -4.3960 N.3    36  ASN36      -0.1225
     10  CA       -20.6380   28.3520   -4.7580 C.3    36  ASN36       0.1785
     11  C        -19.3860   28.5440   -5.6140 C.2    36  ASN36       0.2597
     12  O        -19.4020   29.3590   -6.5480 O.2    36  ASN36      -0.2718
     13  CB       -20.4900   29.2540   -3.5160 C.3    36  ASN36       0.1169
     14  CG       -21.7770   29.4820   -2.7590 C.2    36  ASN36       0.2627
     15  OD1      -22.8860   29.0270   -3.2930 O.2    36  ASN36      -0.2716
     16  ND2      -21.7550   30.0950   -1.6690 N.am   36  ASN36      -0.0877
     17  N        -18.3010   27.8280   -5.2660 N.am   37  ALA37      -0.1979
     18  CA       -17.0580   27.8520   -6.0540 C.3    37  ALA37       0.1597
     19  C        -17.3010   27.3790   -7.4930 C.2    37  ALA37       0.2287
     20  O        -16.8780   28.0540   -8.4580 O.2    37  ALA37      -0.2864
     21  CB       -15.9000   27.0250   -5.3650 C.3    37  ALA37       0.0319
     22  N        -20.2610   27.2450   -9.1080 N.3    39  ASP39      -0.1225
     23  CA       -21.0250   28.3120   -9.7800 C.3    39  ASP39       0.1805
     24  C        -20.1880   29.4930  -10.2560 C.2    39  ASP39       0.2597
     25  O        -20.4110   30.0000  -11.3350 O.2    39  ASP39      -0.2718
     26  CB       -22.1610   28.8430   -8.9160 C.3    39  ASP39       0.1424
     27  CG       -23.1800   27.7860   -8.6060 C.2    39  ASP39       0.3668
     28  OD1      -23.1100   26.6710   -9.1930 O.co2  39  ASP39      -0.2456
     29  OD2      -24.0180   28.0460   -7.7290 O.co2  39  ASP39      -0.2456
     30  N        -19.2480   29.9530   -9.4380 N.am   40  ALA40      -0.1979
     31  CA       -18.4220   31.0980   -9.8390 C.3    40  ALA40       0.1597
     32  C        -17.4970   30.7420  -11.0190 C.2    40  ALA40       0.2287
     33  O        -17.1690   31.5900  -11.8580 O.2    40  ALA40      -0.2864
     34  CB       -17.6190   31.6140   -8.6410 C.3    40  ALA40       0.0319
     35  N        -19.5730   30.7950  -14.2520 N.3    43  LYS43      -0.1245
     36  CA       -19.7480   32.1880  -14.7250 C.3    43  LYS43       0.1561
     37  C        -18.5940   32.7050  -15.5670 C.2    43  LYS43       0.2260
     38  O        -18.8380   33.2930  -16.5880 O.2    43  LYS43      -0.2867
     39  CB       -19.9360   33.1820  -13.5630 C.3    43  LYS43       0.0271
     40  CG       -20.9430   32.8240  -12.4870 C.3    43  LYS43       0.0035
     41  CD       -22.3130   32.9670  -12.9610 C.3    43  LYS43       0.0206
     42  CE       -23.2970   32.9090  -11.7720 C.3    43  LYS43       0.1093
     43  NZ       -24.5670   32.3750  -12.3650 N.3    43  LYS43      -0.1314
     44  N        -11.3750   29.3180   -5.3830 N.3    78  ASP78      -0.1239
     45  CA       -11.7380   29.0020   -6.7420 C.3    78  ASP78       0.1674
     46  C        -11.0890   30.0580   -7.6340 C.2    78  ASP78       0.2266
     47  O        -10.8620   31.1810   -7.1930 O.2    78  ASP78      -0.2867
     48  CB       -13.2860   28.9390   -6.9360 C.3    78  ASP78       0.1410
     49  CG       -13.9750   30.2860   -6.7260 C.2    78  ASP78       0.3668
     50  OD1      -14.6770   30.4700   -5.7110 O.co2  78  ASP78      -0.2456
     51  OD2      -13.8210   31.1820   -7.5670 O.co2  78  ASP78      -0.2456
     52  N        -15.2080   33.6890  -11.3850 N.3    81  ILE81      -0.1231
     53  CA       -15.3310   35.0650  -11.8750 C.3    81  ILE81       0.1692
     54  C        -14.7670   36.1420  -10.9170 C.2    81  ILE81       0.2593
     55  O        -14.3570   37.2170  -11.3670 O.2    81  ILE81      -0.2718
     56  CB       -16.7960   35.3590  -12.3670 C.3    81  ILE81       0.0266
     57  CG1      -16.8770   36.7220  -13.0940 C.3    81  ILE81       0.0019
     58  CG2      -17.8060   35.1610  -11.2180 C.3    81  ILE81       0.0020
     59  CD1      -18.0940   36.8390  -13.9790 C.3    81  ILE81       0.0001
     60  N        -14.7140   35.8440   -9.6180 N.am   82  GLY82      -0.1942
     61  CA       -14.3100   36.8480   -8.6230 C.3    82  GLY82       0.2014
     62  C        -15.3600   37.9590   -8.4150 C.2    82  GLY82       0.2638
     63  O        -16.3990   38.0180   -9.1060 O.2    82  GLY82      -0.2714
     64  N        -15.0910   38.8200   -7.4320 N.am   83  MET83      -0.1976
     65  CA       -15.9600   39.9380   -7.1220 C.3    83  MET83       0.1605
     66  C        -15.1710   41.2490   -6.9880 C.2    83  MET83       0.2287
     67  O        -14.1020   41.2870   -6.3680 O.2    83  MET83      -0.2864
     68  CB       -16.7420   39.6510   -5.8350 C.3    83  MET83       0.0413
     69  CG       -17.7080   38.4590   -5.9220 C.3    83  MET83       0.0598
     70  SD       -18.4460   37.9850   -4.3480 S.3    83  MET83      -0.1393
     71  CE       -17.1580   36.9810   -3.6000 C.3    83  MET83       0.0692
     72  N        -23.1490   41.2350   -3.0710 N.3    91  ASN91      -0.1225
     73  CA       -23.3510   39.7850   -2.9820 C.3    91  ASN91       0.1785
     74  C        -23.4090   39.2750   -1.5600 C.2    91  ASN91       0.2597
     75  O        -24.2660   38.4400   -1.2540 O.2    91  ASN91      -0.2718
     76  CB       -22.2870   38.9760   -3.7400 C.3    91  ASN91       0.1169
     77  CG       -22.4220   39.0790   -5.2480 C.2    91  ASN91       0.2627
     78  OD1      -23.2910   39.7810   -5.7480 O.2    91  ASN91      -0.2716
     79  ND2      -21.5220   38.4170   -5.9770 N.am   91  ASN91      -0.0877
     80  N        -22.5030   39.7600   -0.6960 N.am   92  LEU92      -0.1980
     81  CA       -22.3760   39.1820    0.6370 C.3    92  LEU92       0.1596
     82  C        -23.0890   39.9540    1.7480 C.2    92  LEU92       0.2287
     83  O        -23.4040   39.3880    2.7890 O.2    92  LEU92      -0.2864
     84  CB       -20.9040   38.9210    0.9940 C.3    92  LEU92       0.0297
     85  CG       -20.0040   38.2410   -0.0380 C.3    92  LEU92       0.0022
     86  CD1      -18.5180   38.2430    0.3890 C.3    92  LEU92       0.0001
     87  CD2      -20.5460   36.8400   -0.3540 C.3    92  LEU92       0.0001
     88  N        -27.8640   41.1480   -1.0440 N.3    95  ILE95      -0.1245
     89  CA       -28.8290   40.4070   -1.8820 C.3    95  ILE95       0.1561
     90  C        -29.3160   39.1010   -1.2460 C.2    95  ILE95       0.2260
     91  O        -30.3430   38.5500   -1.6820 O.2    95  ILE95      -0.2867
     92  CB       -28.3500   40.1380   -3.3680 C.3    95  ILE95       0.0252
     93  CG1      -27.2780   39.0260   -3.4100 C.3    95  ILE95       0.0019
     94  CG2      -27.9620   41.4430   -4.0800 C.3    95  ILE95       0.0019
     95  CD1      -26.6820   38.7570   -4.7930 C.3    95  ILE95       0.0001
     96  N        -30.5800   29.6600   -1.4280 N.3   120  GLY120     -0.1225
     97  CA       -29.5820   30.4790   -2.1520 C.3   120  GLY120      0.1811
     98  C        -28.6740   31.2320   -1.2020 C.2   120  GLY120      0.2280
     99  O        -28.0610   32.2380   -1.5750 O.2   120  GLY120     -0.2866
    100  N        -23.7230   30.1250    1.5960 N.3   123  PHE123     -0.1241
    101  CA       -22.5200   30.8110    2.0860 C.3   123  PHE123      0.1605
    102  C        -22.4820   30.9260    3.6230 C.2   123  PHE123      0.2264
    103  O        -21.4300   30.6720    4.2370 O.2   123  PHE123     -0.2867
    104  CB       -22.4030   32.2090    1.4460 C.3   123  PHE123      0.0534
    105  CG       -21.3580   33.1060    2.0880 C.ar  123  PHE123     -0.0203
    106  CD1      -19.9960   32.8480    1.9390 C.ar  123  PHE123     -0.0042
    107  CD2      -21.7440   34.2300    2.8110 C.ar  123  PHE123     -0.0042
    108  CE1      -19.0170   33.7180    2.5130 C.ar  123  PHE123     -0.0003
    109  CE2      -20.7790   35.1140    3.4030 C.ar  123  PHE123     -0.0003
    110  CZ       -19.4260   34.8610    3.2490 C.ar  123  PHE123     -0.0000
    111  N        -11.6280   33.7660   -5.8830 N.3   170  THR170     -0.1218
    112  CA       -12.0810   34.0490   -4.5300 C.3   170  THR170      0.1862
    113  C        -11.5190   33.0180   -3.5640 C.2   170  THR170      0.2287
    114  O        -11.5130   31.8300   -3.8540 O.2   170  THR170     -0.2866
    115  CB       -13.6620   34.0370   -4.4670 C.3   170  THR170      0.1770
    116  OG1      -14.1870   35.0240   -5.3650 O.3   170  THR170     -0.2211
    117  CG2      -14.2070   34.3190   -3.0710 C.3   170  THR170      0.0375
    118  N        -12.3310   31.8780    0.3270 N.3   172  LEU172     -0.1245
    119  CA       -12.9690   31.9700    1.6360 C.3   172  LEU172      0.1561
    120  C        -12.0080   31.4660    2.7200 C.2   172  LEU172      0.2260
    121  O        -11.6600   30.2660    2.7640 O.2   172  LEU172     -0.2867
    122  CB       -14.2790   31.1590    1.6850 C.3   172  LEU172      0.0270
    123  CG       -15.5550   31.8650    1.2480 C.3   172  LEU172      0.0019
    124  CD1      -15.4540   32.4620   -0.1980 C.3   172  LEU172      0.0001
    125  CD2      -16.7280   30.9050    1.3870 C.3   172  LEU172      0.0001
@<TRIPOS>BOND
     1    38    37    2
     2    37    36    1
     3    36    35    1
     4    36    39    1
     5    59    57    1
     6    39    40    1
     7    57    56    1
     8    41    40    1
     9    41    42    1
    10    56    53    1
    11    56    58    1
    12    43    42    1
    13    53    52    1
    14    53    54    1
    15    33    32    2
    16    55    54    2
    17    25    24    2
    18    32    31    1
    19    54    60   am
    20    24    23    1
    21    24    30   am
    22    31    30    1
    23    31    34    1
    24    23    22    1
    25    23    26    1
    26    60    61    1
    27    28    27   ar
    28    63    62    2
    29    26    27    1
    30    61    62    1
    31    27    29   ar
    32    20    19    2
    33    62    64   am
    34    46    47    2
    35    46    45    1
    36    51    49   ar
    37    19    18    1
    38    64    65    1
    39    65    66    1
    40    65    68    1
    41    66    67    2
    42    48    45    1
    43    48    49    1
    44    45    44    1
    45    49    50   ar
    46    12    11    2
    47    18    21    1
    48    18    17    1
    49    79    77   am
    50    69    68    1
    51    69    70    1
    52   111   112    1
    53    78    77    2
    54    11    17   am
    55    11    10    1
    56   116   115    1
    57    77    76    1
    58    95    93    1
    59    10     9    1
    60    10    13    1
    61   112   115    1
    62   112   113    1
    63   115   117    1
    64    70    71    1
    65    94    92    1
    66   114   113    2
    67    76    73    1
    68    13    14    1
    69    93    92    1
    70    92    89    1
    71    15    14    2
    72    72    73    1
    73    73    74    1
    74    14    16   am
    75     4     3    2
    76    97    96    1
    77    97    98    1
    78    89    90    1
    79    89    88    1
    80     3     2    1
    81    91    90    2
    82    99    98    2
    83    74    75    2
    84    74    80   am
    85    80    81    1
    86     2     1    1
    87     2     5    1
    88    87    85    1
    89   124   123    1
    90    85    86    1
    91    85    84    1
    92   118   119    1
    93    81    84    1
    94    81    82    1
    95     5     6    1
    96   123   125    1
    97   123   122    1
    98   104   101    1
    99   104   105    1
   100   100   101    1
   101   119   122    1
   102   119   120    1
   103    82    83    2
   104     8     6    1
   105   106   105   ar
   106   106   108   ar
   107     6     7    1
   108   101   102    1
   109   105   107   ar
   110   108   110   ar
   111   120   121    2
   112   107   109   ar
   113   110   109   ar
   114   102   103    2
