@<TRIPOS>MOLECULE
tmp/2cgnA00.pdb
 138 129 0 0 0
SMALL
GASTEIGER

@<TRIPOS>ATOM
      1  N         11.9530   21.9570   37.0180 N.3   134  TYR134     -0.1241
      2  CA        12.8750   21.7960   35.8930 C.3   134  TYR134      0.1605
      3  C         13.9120   20.7160   36.1680 C.2   134  TYR134      0.2264
      4  O         14.8250   20.9530   36.9860 O.2   134  TYR134     -0.2867
      5  CB        13.6300   23.1320   35.5780 C.3   134  TYR134      0.0534
      6  CG        13.9840   23.3170   34.1070 C.ar  134  TYR134     -0.0201
      7  CD1       14.1570   22.2170   33.2370 C.ar  134  TYR134     -0.0009
      8  CD2       14.1050   24.5770   33.5700 C.ar  134  TYR134     -0.0009
      9  CE1       14.4420   22.3980   31.8800 C.ar  134  TYR134      0.0417
     10  CE2       14.3640   24.7700   32.1940 C.ar  134  TYR134      0.0417
     11  CZ        14.5580   23.7020   31.3720 C.ar  134  TYR134      0.1957
     12  OH        14.8620   23.9210   30.0220 O.3   134  TYR134     -0.2866
     13  N         17.1890   18.7040   35.4140 N.3   136  GLN136     -0.1245
     14  CA        18.4190   19.0480   34.7620 C.3   136  GLN136      0.1566
     15  C         19.4070   18.1620   35.4200 C.2   136  GLN136      0.2260
     16  O         19.8380   18.4330   36.5440 O.2   136  GLN136     -0.2867
     17  CB        18.7870   20.5380   35.0090 C.3   136  GLN136      0.0367
     18  CG        17.7520   21.5580   34.5020 C.3   136  GLN136      0.0905
     19  CD        18.2480   23.0100   34.5010 C.2   136  GLN136      0.2608
     20  OE1       19.2880   23.3330   35.1090 O.2   136  GLN136     -0.2717
     21  NE2       17.4850   23.9020   33.8350 N.am  136  GLN136     -0.0878
     22  N         23.8070   16.5660   29.5120 N.3   175  LEU175     -0.1245
     23  CA        22.8130   16.8660   30.4740 C.3   175  LEU175      0.1561
     24  C         21.4680   16.6280   29.8140 C.2   175  LEU175      0.2260
     25  O         21.2310   17.0870   28.6890 O.2   175  LEU175     -0.2867
     26  CB        22.9730   18.3370   30.9010 C.3   175  LEU175      0.0270
     27  CG        22.3030   18.9150   32.1650 C.3   175  LEU175      0.0019
     28  CD1       22.9970   18.4810   33.4720 C.3   175  LEU175      0.0001
     29  CD2       22.3030   20.4840   31.9810 C.3   175  LEU175      0.0001
     30  N         17.6390   17.6670   30.0680 N.3   177  LEU177     -0.1301
     31  CA        16.7550   18.6760   30.6170 C.3   177  LEU177      0.1247
     32  C         15.2870   18.3580   30.2910 C.3   177  LEU177      0.2009
     33  O         14.9470   18.0550   29.0870 O.3   177  LEU177     -0.2188
     34  CB        17.1330   20.0400   30.0450 C.3   177  LEU177      0.0217
     35  CG        18.5950   20.5480   30.0420 C.3   177  LEU177      0.0015
     36  CD1       19.3300   20.1730   28.8190 C.3   177  LEU177      0.0000
     37  CD2       18.5910   22.0610   30.0010 C.3   177  LEU177      0.0000
     38  N         14.8540   29.6290   31.1330 N.3   185  THR185     -0.1218
     39  CA        16.2500   29.8000   31.5640 C.3   185  THR185      0.1862
     40  C         16.7210   31.1840   31.1090 C.2   185  THR185      0.2287
     41  O         16.8370   31.4360   29.9300 O.2   185  THR185     -0.2866
     42  CB        17.1270   28.7340   31.0070 C.3   185  THR185      0.1770
     43  OG1       16.6820   27.4910   31.5260 O.3   185  THR185     -0.2211
     44  CG2       18.5880   28.9200   31.5280 C.3   185  THR185      0.0375
     45  N         22.3910   33.7510   29.9210 N.3   188  HIS188     -0.1241
     46  CA        23.6800   33.4980   30.4810 C.3   188  HIS188      0.1621
     47  C         24.5660   32.9960   29.3890 C.2   188  HIS188      0.2264
     48  O         24.1190   32.7990   28.2500 O.2   188  HIS188     -0.2867
     49  CB        23.5310   32.5260   31.6240 C.3   188  HIS188      0.0745
     50  CG        23.1830   31.1800   31.1580 C.ar  188  HIS188      0.0817
     51  ND1       21.9530   30.9620   30.5780 N.ar  188  HIS188     -0.2268
     52  CD2       23.9650   30.1590   30.7850 C.ar  188  HIS188      0.1154
     53  CE1       21.9190   29.7570   30.0940 C.ar  188  HIS188      0.1986
     54  NE2       23.1320   29.2590   30.1890 N.ar  188  HIS188     -0.2212
     55  N         27.9760   30.1520   28.7200 N.3   190  ASP190     -0.1239
     56  CA        28.6600   28.9130   29.2510 C.3   190  ASP190      0.1674
     57  C         30.0800   29.1210   28.6400 C.2   190  ASP190      0.2266
     58  O         30.2200   29.8310   27.5900 O.2   190  ASP190     -0.2867
     59  CB        27.9510   27.6280   28.7670 C.3   190  ASP190      0.1410
     60  CG        26.5040   27.4890   29.2430 C.2   190  ASP190      0.3668
     61  OD1       26.4630   27.6000   30.4410 O.co2 190  ASP190     -0.2456
     62  OD2       25.4030   27.2560   28.4740 O.co2 190  ASP190     -0.2456
     63  N         28.7390   23.9610   22.7280 N.3   194  ASN194     -0.1240
     64  CA        27.4670   23.1970   22.9410 C.3   194  ASN194      0.1653
     65  C         26.7020   22.7620   21.6970 C.2   194  ASN194      0.2266
     66  O         26.4000   23.5820   20.8220 O.2   194  ASN194     -0.2867
     67  CB        26.5530   23.9730   23.8660 C.3   194  ASN194      0.1155
     68  CG        25.3080   23.2120   24.3390 C.2   194  ASN194      0.2627
     69  OD1       24.4150   23.7950   24.9570 O.2   194  ASN194     -0.2716
     70  ND2       25.2880   21.9080   24.1640 N.am  194  ASN194     -0.0877
     71  N         23.0560   21.2870   21.2600 N.3   196  PHE196     -0.1241
     72  CA        21.8280   21.3610   22.0930 C.3   196  PHE196      0.1605
     73  C         20.8160   20.6240   21.2410 C.2   196  PHE196      0.2264
     74  O         20.3600   21.1050   20.2230 O.2   196  PHE196     -0.2867
     75  CB        21.4430   22.8850   22.3120 C.3   196  PHE196      0.0534
     76  CG        20.0600   23.1380   22.9810 C.ar  196  PHE196     -0.0203
     77  CD1       18.9270   23.1950   22.2480 C.ar  196  PHE196     -0.0042
     78  CD2       19.9570   23.4350   24.2920 C.ar  196  PHE196     -0.0042
     79  CE1       17.6620   23.5190   22.8530 C.ar  196  PHE196     -0.0003
     80  CE2       18.7240   23.6660   24.9200 C.ar  196  PHE196     -0.0003
     81  CZ        17.5510   23.7410   24.1670 C.ar  196  PHE196     -0.0000
     82  N         11.4220   24.5660   21.9900 N.3   203  LYS203     -0.1245
     83  CA        12.0950   25.6330   22.7360 C.3   203  LYS203      0.1561
     84  C         12.5840   26.7560   21.8380 C.2   203  LYS203      0.2260
     85  O         13.1980   26.5410   20.7780 O.2   203  LYS203     -0.2867
     86  CB        13.2490   25.0330   23.4920 C.3   203  LYS203      0.0271
     87  CG        12.8570   24.2010   24.6980 C.3   203  LYS203      0.0035
     88  CD        14.1710   23.7930   25.3450 C.3   203  LYS203      0.0206
     89  CE        14.0300   23.5160   26.7280 C.3   203  LYS203      0.1093
     90  NZ        15.3630   23.0200   27.0610 N.3   203  LYS203     -0.1314
     91  N         25.3330   26.1690   20.0050 N.3   262  ILE262     -0.1245
     92  CA        25.5480   27.3560   20.8090 C.3   262  ILE262      0.1561
     93  C         27.0810   27.5230   20.9990 C.2   262  ILE262      0.2260
     94  O         27.7110   26.8320   21.8210 O.2   262  ILE262     -0.2867
     95  CB        24.7950   27.3200   22.1670 C.3   262  ILE262      0.0252
     96  CG1       23.3090   26.9470   21.9430 C.3   262  ILE262      0.0019
     97  CG2       24.9000   28.7120   22.8300 C.3   262  ILE262      0.0019
     98  CD1       22.3770   26.7280   23.2310 C.3   262  ILE262      0.0001
     99  N         22.7560   32.8680   25.8400 N.3   268  HIS268     -0.1241
    100  CA        21.4950   32.3550   25.4540 C.3   268  HIS268      0.1621
    101  C         20.4240   32.4160   26.5290 C.2   268  HIS268      0.2264
    102  O         20.6860   32.3750   27.6930 O.2   268  HIS268     -0.2867
    103  CB        21.6830   30.8830   24.9340 C.3   268  HIS268      0.0745
    104  CG        22.5950   30.1020   25.7800 C.ar  268  HIS268      0.0817
    105  ND1       23.9520   30.3150   25.7750 N.ar  268  HIS268     -0.2268
    106  CD2       22.3550   29.1490   26.7030 C.ar  268  HIS268      0.1154
    107  CE1       24.5240   29.5090   26.6480 C.ar  268  HIS268      0.1986
    108  NE2       23.5870   28.7580   27.1890 N.ar  268  HIS268     -0.2212
    109  N         16.6160   30.5660   26.9190 N.3   270  ILE270     -0.1245
    110  CA        15.9100   29.3800   26.3590 C.3   270  ILE270      0.1561
    111  C         14.5410   29.2850   27.0190 C.2   270  ILE270      0.2260
    112  O         14.4590   29.3090   28.2260 O.2   270  ILE270     -0.2867
    113  CB        16.6270   28.0460   26.6760 C.3   270  ILE270      0.0252
    114  CG1       18.1670   28.1510   26.4240 C.3   270  ILE270      0.0019
    115  CG2       16.0430   26.8760   25.8610 C.3   270  ILE270      0.0019
    116  CD1       18.6020   28.3720   24.9820 C.3   270  ILE270      0.0001
    117  N         21.9330   17.9720   25.9380 N.3   283  ASN283     -0.1240
    118  CA        23.0650   18.9000   25.5680 C.3   283  ASN283      0.1653
    119  C         24.3240   18.0570   25.4470 C.2   283  ASN283      0.2266
    120  O         24.4850   17.1150   26.2000 O.2   283  ASN283     -0.2867
    121  CB        23.3770   19.9080   26.7110 C.3   283  ASN283      0.1155
    122  CG        22.8020   21.3160   26.4590 C.2   283  ASN283      0.2627
    123  OD1       22.4980   21.6780   25.2970 O.2   283  ASN283     -0.2716
    124  ND2       22.6660   22.1410   27.5440 N.am  283  ASN283     -0.0877
    125  N         28.2890   18.9840   25.8000 N.3   285  TRP285     -0.1241
    126  CA        29.2880   20.0270   26.0970 C.3   285  TRP285      0.1605
    127  C         30.6940   19.5520   25.8440 C.2   285  TRP285      0.2264
    128  O         31.0410   18.4930   26.2860 O.2   285  TRP285     -0.2867
    129  CB        29.1730   20.5320   27.5520 C.3   285  TRP285      0.0550
    130  CG        28.2270   21.6850   27.7530 C.ar  285  TRP285      0.0003
    131  CD1       28.1610   22.8220   27.0230 C.ar  285  TRP285      0.0946
    132  CD2       27.2330   21.8040   28.7540 C.ar  285  TRP285      0.0152
    133  NE1       27.1640   23.6490   27.4910 N.ar  285  TRP285     -0.2442
    134  CE2       26.5880   23.0470   28.5670 C.ar  285  TRP285      0.0810
    135  CE3       26.8300   20.9810   29.8180 C.ar  285  TRP285      0.0012
    136  CZ2       25.6010   23.5170   29.4200 C.ar  285  TRP285      0.0191
    137  CZ3       25.8210   21.4300   30.6670 C.ar  285  TRP285      0.0001
    138  CH2       25.2100   22.6780   30.4540 C.ar  285  TRP285      0.0015
@<TRIPOS>BOND
     1    91    92    1
     2    74    73    2
     3    85    84    2
     4    92    93    1
     5    92    95    1
     6    66    65    2
     7    93    94    2
     8    73    72    1
     9    71    72    1
    10    65    64    1
    11    84    83    1
    12    96    95    1
    13    96    98    1
    14    82    83    1
    15    72    75    1
    16    95    97    1
    17    77    79   ar
    18    77    76   ar
    19    75    76    1
    20    63    64    1
    21    83    86    1
    22    79    81   ar
    23    64    67    1
    24    76    78   ar
    25    86    87    1
    26    67    68    1
    27    70    68   am
    28    81    80   ar
    29    78    80   ar
    30    68    69    2
    31    87    88    1
    32   103   100    1
    33   103   104    1
    34   116   114    1
    35   123   122    2
    36    88    89    1
    37   119   118    1
    38   119   120    2
    39   100    99    1
    40   100   101    1
    41   118   117    1
    42   118   121    1
    43   105   104   ar
    44   105   107   ar
    45   104   106   ar
    46   125   126    1
    47   127   126    1
    48   127   128    2
    49   115   113    1
    50   126   129    1
    51   110   113    1
    52   110   109    1
    53   110   111    1
    54   114   113    1
    55   122   121    1
    56   122   124   am
    57   101   102    2
    58   107   108   ar
    59   106   108   ar
    60    89    90    1
    61   111   112    2
    62   131   133   ar
    63   131   130   ar
    64   133   134   ar
    65   129   130    1
    66    58    57    2
    67   130   132   ar
    68    48    47    2
    69    62    60   ar
    70   134   132   ar
    71   134   136   ar
    72    57    56    1
    73    25    24    2
    74    55    56    1
    75   132   135   ar
    76    59    60    1
    77    59    56    1
    78    36    35    1
    79    33    32    1
    80    60    61   ar
    81    47    46    1
    82   136   138   ar
    83    22    23    1
    84    24    23    1
    85   135   137   ar
    86    45    46    1
    87    41    40    2
    88    37    35    1
    89    12    11    1
    90    35    34    1
    91    34    31    1
    92    30    31    1
    93    53    54   ar
    94    53    51   ar
    95    54    52   ar
    96    32    31    1
    97   138   137   ar
    98    23    26    1
    99    46    49    1
   100    51    50   ar
   101    52    50   ar
   102    26    27    1
   103    42    43    1
   104    42    44    1
   105    42    39    1
   106    40    39    1
   107    38    39    1
   108    50    49    1
   109    11     9   ar
   110    11    10   ar
   111     9     7   ar
   112    29    27    1
   113    27    28    1
   114    10     8   ar
   115     7     6   ar
   116     8     6   ar
   117    21    19   am
   118     6     5    1
   119    19    18    1
   120    19    20    2
   121    18    17    1
   122    14    17    1
   123    14    13    1
   124    14    15    1
   125    15    16    2
   126     5     2    1
   127     2     3    1
   128     2     1    1
   129     3     4    2
