@<TRIPOS>MOLECULE
tmp/2cgrA00.pdb
 90 87 0 0 0
SMALL
GASTEIGER

@<TRIPOS>ATOM
      1  N        -10.7840   31.3600   25.2150 N.3    31  HIS31      -0.1241
      2  CA       -11.2600   32.7140   25.0550 C.3    31  HIS31       0.1621
      3  C        -12.5810   32.9030   25.8360 C.2    31  HIS31       0.2264
      4  O        -13.2180   31.9230   26.2140 O.2    31  HIS31      -0.2867
      5  CB       -11.4600   32.8970   23.5410 C.3    31  HIS31       0.0745
      6  CG       -11.6800   34.3070   23.1180 C.ar   31  HIS31       0.0817
      7  ND1      -12.9280   34.8830   23.0580 N.ar   31  HIS31      -0.2268
      8  CD2      -10.8210   35.2500   22.6770 C.ar   31  HIS31       0.1154
      9  CE1      -12.8350   36.1230   22.6030 C.ar   31  HIS31       0.1986
     10  NE2      -11.5640   36.3690   22.3640 N.ar   31  HIS31      -0.2212
     11  N        -15.2880   33.6660   24.7460 N.3    33  ASN33      -0.1240
     12  CA       -16.3490   33.1100   23.9510 C.3    33  ASN33       0.1653
     13  C        -16.3360   31.6070   23.9400 C.2    33  ASN33       0.2266
     14  O        -17.1590   31.0030   23.2770 O.2    33  ASN33      -0.2867
     15  CB       -16.3810   33.7290   22.5410 C.3    33  ASN33       0.1155
     16  CG       -15.3430   33.1450   21.5760 C.2    33  ASN33       0.2627
     17  OD1      -14.6890   32.1400   21.8360 O.2    33  ASN33      -0.2716
     18  ND2      -15.2250   33.7780   20.4360 N.am   33  ASN33      -0.0877
     19  N         -8.2580   29.7080   20.6730 N.3    37  TYR37      -0.1241
     20  CA        -7.5640   30.1690   19.5000 C.3    37  TYR37       0.1605
     21  C         -6.0600   29.8490   19.4080 C.2    37  TYR37       0.2264
     22  O         -5.2300   30.7420   19.4880 O.2    37  TYR37      -0.2867
     23  CB        -7.8130   31.6490   19.3390 C.3    37  TYR37       0.0534
     24  CG        -9.2740   31.9500   19.2010 C.ar   37  TYR37      -0.0201
     25  CD1       -9.9790   31.5030   18.1070 C.ar   37  TYR37      -0.0009
     26  CD2       -9.9670   32.6260   20.1840 C.ar   37  TYR37      -0.0009
     27  CE1      -11.3210   31.7110   17.9850 C.ar   37  TYR37       0.0417
     28  CE2      -11.3140   32.8400   20.0620 C.ar   37  TYR37       0.0417
     29  CZ       -11.9860   32.3760   18.9580 C.ar   37  TYR37       0.1957
     30  OH       -13.3330   32.5890   18.8090 O.3    37  TYR37      -0.2866
     31  N         -3.3090   28.3640   16.8430 N.3    39  HIS39      -0.1241
     32  CA        -3.0950   28.0860   15.4160 C.3    39  HIS39       0.1621
     33  C         -1.6900   27.5480   15.0950 C.2    39  HIS39       0.2264
     34  O         -0.7680   27.6200   15.9130 O.2    39  HIS39      -0.2867
     35  CB        -3.3440   29.3640   14.6120 C.3    39  HIS39       0.0745
     36  CG        -4.5660   30.1240   15.0360 C.ar   39  HIS39       0.0817
     37  ND1       -5.8220   29.5540   15.0710 N.ar   39  HIS39      -0.2268
     38  CD2       -4.7350   31.4130   15.4160 C.ar   39  HIS39       0.1154
     39  CE1       -6.7100   30.4650   15.4440 C.ar   39  HIS39       0.1986
     40  NE2       -6.0720   31.5970   15.6610 N.ar   39  HIS39      -0.2212
     41  N          1.2450   27.5860   11.9090 N.3    41  TYR41      -0.1241
     42  CA         1.7150   28.2150   10.6800 C.3    41  TYR41       0.1605
     43  C          2.9110   27.4540   10.1370 C.2    41  TYR41       0.2264
     44  O          3.5880   26.7530   10.8850 O.2    41  TYR41      -0.2867
     45  CB         2.1730   29.6310   10.9610 C.3    41  TYR41       0.0534
     46  CG         1.0770   30.4930   11.4420 C.ar   41  TYR41      -0.0201
     47  CD1        0.6150   30.4020   12.7530 C.ar   41  TYR41      -0.0009
     48  CD2        0.4350   31.3610   10.5790 C.ar   41  TYR41      -0.0009
     49  CE1       -0.4760   31.1650   13.1820 C.ar   41  TYR41       0.0417
     50  CE2       -0.6620   32.1310   11.0010 C.ar   41  TYR41       0.0417
     51  CZ        -1.0980   32.0220   12.2980 C.ar   41  TYR41       0.1957
     52  OH        -2.1080   32.8260   12.7150 O.3    41  TYR41      -0.2866
     53  N          0.8980   29.1450   17.7280 N.3    94  SER94      -0.1202
     54  CA         0.6100   30.5020   18.1310 C.3    94  SER94       0.2020
     55  C         -0.7260   30.5930   18.8640 C.2    94  SER94       0.2619
     56  O         -1.5750   29.7000   18.7560 O.2    94  SER94      -0.2717
     57  CB         0.5740   31.3460   16.8840 C.3    94  SER94       0.2103
     58  OG         0.2380   32.6860   17.1550 O.3    94  SER94      -0.2182
     59  N         -0.9020   31.6660   19.6310 N.am   95  GLN95      -0.1965
     60  CA        -2.1440   31.8920   20.3540 C.3    95  GLN95       0.1733
     61  C         -2.7330   33.2150   19.9090 C.2    95  GLN95       0.2616
     62  O         -2.0320   34.2290   19.8500 O.2    95  GLN95      -0.2715
     63  CB        -1.9270   31.8990   21.8840 C.3    95  GLN95       0.0408
     64  CG        -1.0460   33.0200   22.4370 C.3    95  GLN95       0.0908
     65  CD        -1.8040   34.1880   22.9960 C.2    95  GLN95       0.2608
     66  OE1       -2.9830   34.0900   23.2630 O.2    95  GLN95      -0.2717
     67  NE2       -1.1260   35.2980   23.1940 N.am   95  GLN95      -0.0878
     68  N         -4.0260   33.2000   19.6040 N.am   96  GLY96      -0.1955
     69  CA        -4.6920   34.4170   19.2210 C.3    96  GLY96       0.1869
     70  C         -5.7420   34.7930   20.2600 C.2    96  GLY96       0.2309
     71  O         -6.6260   35.6220   20.0060 O.2    96  GLY96      -0.2863
     72  N         -3.9110   39.1310   24.2460 N.3    99  VAL99      -0.1245
     73  CA        -3.0880   40.1530   23.6040 C.3    99  VAL99       0.1561
     74  C         -1.8960   40.2700   24.5100 C.2    99  VAL99       0.2260
     75  O         -2.0780   40.3750   25.7180 O.2    99  VAL99      -0.2867
     76  CB        -3.8190   41.5200   23.5690 C.3    99  VAL99       0.0252
     77  CG1       -2.8310   42.6740   23.4220 C.3    99  VAL99       0.0019
     78  CG2       -4.8060   41.5480   22.4130 C.3    99  VAL99       0.0019
     79  N         -0.4900   38.5620   20.7870 N.3   101  TYR101     -0.1241
     80  CA        -0.5540   37.2000   20.2670 C.3   101  TYR101      0.1605
     81  C          0.9020   36.8390   20.2080 C.2   101  TYR101      0.2264
     82  O          1.7480   37.6920   19.9060 O.2   101  TYR101     -0.2867
     83  CB        -1.2250   37.1590   18.8990 C.3   101  TYR101      0.0534
     84  CG        -2.4760   38.0200   18.8850 C.ar  101  TYR101     -0.0201
     85  CD1       -3.4760   37.8470   19.8470 C.ar  101  TYR101     -0.0009
     86  CD2       -2.5720   39.1110   18.0370 C.ar  101  TYR101     -0.0009
     87  CE1       -4.5100   38.7440   19.9650 C.ar  101  TYR101      0.0417
     88  CE2       -3.5950   40.0050   18.1550 C.ar  101  TYR101      0.0417
     89  CZ        -4.5590   39.8190   19.1280 C.ar  101  TYR101      0.1957
     90  OH        -5.5250   40.7700   19.2800 O.3   101  TYR101     -0.2866
@<TRIPOS>BOND
     1    43    42    1
     2    43    44    2
     3    48    50   ar
     4    48    46   ar
     5    42    45    1
     6    42    41    1
     7    45    46    1
     8    50    51   ar
     9    46    47   ar
    10    51    52    1
    11    51    49   ar
    12    47    49   ar
    13    35    36    1
    14    35    32    1
    15    36    37   ar
    16    36    38   ar
    17    37    39   ar
    18    33    32    1
    19    33    34    2
    20    32    31    1
    21    38    40   ar
    22    39    40   ar
    23    57    58    1
    24    57    54    1
    25    53    54    1
    26    27    25   ar
    27    27    29   ar
    28    86    88   ar
    29    86    84   ar
    30    25    24   ar
    31    54    55    1
    32    88    89   ar
    33    56    55    2
    34    30    29    1
    35    55    59   am
    36    84    83    1
    37    84    85   ar
    38    83    80    1
    39    29    28   ar
    40    89    90    1
    41    89    87   ar
    42    24    23    1
    43    24    26   ar
    44    69    68    1
    45    69    70    1
    46    23    20    1
    47    21    22    2
    48    21    20    1
    49    20    19    1
    50    68    61   am
    51    59    60    1
    52    85    87   ar
    53    62    61    2
    54    82    81    2
    55    61    60    1
    56    71    70    2
    57    28    26   ar
    58    81    80    1
    59    80    79    1
    60    60    63    1
    61    18    16   am
    62    16    17    2
    63    16    15    1
    64    63    64    1
    65    10     9   ar
    66    10     8   ar
    67    78    76    1
    68    64    65    1
    69    15    12    1
    70     9     7   ar
    71     8     6   ar
    72    65    67   am
    73    65    66    2
    74     7     6   ar
    75     6     5    1
    76    14    13    2
    77    77    76    1
    78     5     2    1
    79    76    73    1
    80    73    72    1
    81    73    74    1
    82    13    12    1
    83    12    11    1
    84    74    75    2
    85     2     1    1
    86     2     3    1
    87     3     4    2
