@<TRIPOS>MOLECULE
tmp/2cgrB00.pdb
 104 99 0 0 0
SMALL
GASTEIGER

@<TRIPOS>ATOM
      1  N        -13.3660   45.5320    7.6460 N.3    31  GLU31      -0.1245
      2  CA       -14.0790   44.6730    8.5620 C.3    31  GLU31       0.1567
      3  C        -13.1000   43.7210    9.2220 C.2    31  GLU31       0.2260
      4  O        -13.4510   43.0120   10.1730 O.2    31  GLU31      -0.2867
      5  CB       -15.1750   43.9030    7.7930 C.3    31  GLU31       0.0388
      6  CG       -16.3840   43.4510    8.6300 C.3    31  GLU31       0.1160
      7  CD       -16.4510   41.9230    8.8710 C.2    31  GLU31       0.3649
      8  OE1      -15.8970   41.1810    8.0310 O.co2  31  GLU31      -0.2457
      9  OE2      -17.0830   41.4720    9.8710 O.co2  31  GLU31      -0.2457
     10  N         -8.9610   43.0270   10.7810 N.3    33  TRP33      -0.1241
     11  CA        -7.8020   43.6680   11.3970 C.3    33  TRP33       0.1605
     12  C         -6.5980   43.4860   10.5270 C.2    33  TRP33       0.2264
     13  O         -6.4920   42.4510    9.8800 O.2    33  TRP33      -0.2867
     14  CB        -7.4930   42.9980   12.7410 C.3    33  TRP33       0.0550
     15  CG        -8.4720   43.3590   13.7530 C.ar   33  TRP33       0.0003
     16  CD1       -9.7040   42.8000   13.9390 C.ar   33  TRP33       0.0946
     17  CD2       -8.3830   44.4660   14.6510 C.ar   33  TRP33       0.0152
     18  NE1      -10.3920   43.5200   14.8800 N.ar   33  TRP33      -0.2442
     19  CE2       -9.6040   44.5420   15.3360 C.ar   33  TRP33       0.0810
     20  CE3       -7.3920   45.4090   14.9300 C.ar   33  TRP33       0.0012
     21  CZ2       -9.8620   45.5290   16.2980 C.ar   33  TRP33       0.0191
     22  CZ3       -7.6450   46.3950   15.8830 C.ar   33  TRP33       0.0001
     23  CH2       -8.8690   46.4440   16.5550 C.ar   33  TRP33       0.0015
     24  N         -2.7330   42.9990   10.9530 N.3    35  GLU35      -0.1245
     25  CA        -1.7330   42.6780   11.9680 C.3    35  GLU35       0.1567
     26  C         -0.3750   43.0000   11.4420 C.2    35  GLU35       0.2260
     27  O         -0.1230   42.7910   10.2650 O.2    35  GLU35      -0.2867
     28  CB        -1.7230   41.1810   12.2410 C.3    35  GLU35       0.0388
     29  CG        -3.0390   40.6040   12.6160 C.3    35  GLU35       0.1160
     30  CD        -3.6050   41.2570   13.8500 C.2    35  GLU35       0.3649
     31  OE1       -2.9300   41.1680   14.8900 O.co2  35  GLU35      -0.2457
     32  OE2       -4.7030   41.8600   13.7700 O.co2  35  GLU35      -0.2457
     33  N         -1.8830   46.0000   15.9420 N.3    50  GLU50      -0.1245
     34  CA        -2.9700   45.8060   14.9910 C.3    50  GLU50       0.1567
     35  C         -3.9010   46.9930   14.9160 C.2    50  GLU50       0.2260
     36  O         -4.1050   47.6980   15.8850 O.2    50  GLU50      -0.2867
     37  CB        -3.7630   44.5560   15.3360 C.3    50  GLU50       0.0388
     38  CG        -4.6310   44.7420   16.5340 C.3    50  GLU50       0.1160
     39  CD        -5.2810   43.4790   16.9430 C.2    50  GLU50       0.3649
     40  OE1       -5.5590   42.6530   16.0760 O.co2  50  GLU50      -0.2457
     41  OE2       -5.5100   43.2790   18.1410 O.co2  50  GLU50      -0.2457
     42  N         -7.7680   48.4560   13.1260 N.3    52  LEU52      -0.1245
     43  CA        -9.0260   48.0830   12.4860 C.3    52  LEU52       0.1561
     44  C         -9.4090   49.2750   11.6560 C.2    52  LEU52       0.2260
     45  O         -9.7510   50.3530   12.1870 O.2    52  LEU52      -0.2867
     46  CB       -10.1400   47.8190   13.4890 C.3    52  LEU52       0.0270
     47  CG       -11.4910   47.3400   12.9340 C.3    52  LEU52       0.0019
     48  CD1      -11.3210   46.0150   12.2620 C.3    52  LEU52       0.0001
     49  CD2      -12.5010   47.1590   14.0500 C.3    52  LEU52       0.0001
     50  N         -9.1680   51.9150   15.1820 N.3    57  ARG57      -0.1245
     51  CA        -8.8290   51.4420   16.5200 C.3    57  ARG57       0.1563
     52  C         -7.5850   50.5550   16.4720 C.2    57  ARG57       0.2260
     53  O         -7.5780   49.5480   15.7690 O.2    57  ARG57      -0.2867
     54  CB       -10.0050   50.6380   17.0830 C.3    57  ARG57       0.0307
     55  CG        -9.7910   50.1430   18.5000 C.3    57  ARG57       0.0489
     56  CD       -11.1070   49.8450   19.2460 C.3    57  ARG57       0.2205
     57  NE       -11.6770   48.5130   18.9890 N.pl3  57  ARG57      -0.0865
     58  CZ       -11.2580   47.3900   19.5720 C.cat  57  ARG57       0.5346
     59  NH1      -10.2390   47.4180   20.4220 N.pl3  57  ARG57       0.1354
     60  NH2      -11.9420   46.2620   19.4160 N.pl3  57  ARG57       0.1354
     61  N         -4.2100   48.3870   18.6660 N.3    59  ASN59      -0.1240
     62  CA        -3.7260   47.6540   19.8500 C.3    59  ASN59       0.1653
     63  C         -2.1960   47.5620   19.6940 C.2    59  ASN59       0.2266
     64  O         -1.7230   46.9860   18.7220 O.2    59  ASN59      -0.2867
     65  CB        -4.2630   46.2160   19.8810 C.3    59  ASN59       0.1155
     66  CG        -5.6110   46.1040   20.5310 C.2    59  ASN59       0.2627
     67  OD1       -6.1060   47.0480   21.1270 O.2    59  ASN59      -0.2716
     68  ND2       -6.1920   44.9300   20.4510 N.am   59  ASN59      -0.0877
     69  N         -6.4600   39.9140    9.7860 N.3    99  GLY99      -0.1210
     70  CA        -6.8670   39.2890   11.0270 C.3    99  GLY99       0.1956
     71  C         -8.2840   39.4370   11.5340 C.2    99  GLY99       0.2612
     72  O         -8.9460   40.4560   11.3420 O.2    99  GLY99      -0.2717
     73  N         -8.7460   38.3550   12.1470 N.am  100  TYR100     -0.1962
     74  CA       -10.0360   38.2780   12.8210 C.3   100  TYR100      0.1771
     75  C         -9.7510   37.4650   14.0830 C.2   100  TYR100      0.2620
     76  O         -9.6450   38.0220   15.1510 O.2   100  TYR100     -0.2715
     77  CB       -11.1070   37.6110   11.9820 C.3   100  TYR100      0.0574
     78  CG       -12.5050   37.9370   12.4630 C.ar  100  TYR100     -0.0198
     79  CD1      -13.1800   39.0620   11.9960 C.ar  100  TYR100     -0.0009
     80  CD2      -13.1300   37.1290   13.4060 C.ar  100  TYR100     -0.0009
     81  CE1      -14.4440   39.3750   12.4630 C.ar  100  TYR100      0.0417
     82  CE2      -14.3870   37.4230   13.8830 C.ar  100  TYR100      0.0417
     83  CZ       -15.0480   38.5480   13.4160 C.ar  100  TYR100      0.1957
     84  OH       -16.3010   38.8580   13.9250 O.3   100  TYR100     -0.2866
     85  N         -9.5520   36.1660   13.9680 N.am  101  SER101     -0.1936
     86  CA        -9.2200   35.3670   15.1250 C.3   101  SER101      0.2055
     87  C         -7.9770   34.5330   14.7950 C.2   101  SER101      0.2644
     88  O         -7.4350   33.8050   15.6350 O.2   101  SER101     -0.2714
     89  CB       -10.4110   34.4990   15.5450 C.3   101  SER101      0.2130
     90  OG       -10.5430   33.3240   14.7880 O.3   101  SER101     -0.2179
     91  N         -7.4740   34.7510   13.5900 N.am  102  SER102     -0.1935
     92  CA        -6.3030   34.1010   13.0120 C.3   102  SER102      0.2055
     93  C         -5.6510   35.1440   12.1420 C.2   102  SER102      0.2642
     94  O         -6.1980   36.2260   11.9560 O.2   102  SER102     -0.2714
     95  CB        -6.7170   32.9860   12.0760 C.3   102  SER102      0.2130
     96  OG        -6.8200   31.7980   12.8030 O.3   102  SER102     -0.2179
     97  N         -4.4400   34.8520   11.7040 N.am  103  MET103     -0.1976
     98  CA        -3.7130   35.7010   10.7600 C.3   103  MET103      0.1605
     99  C         -3.6760   34.7500    9.5670 C.2   103  MET103      0.2287
    100  O         -2.7950   33.9020    9.4670 O.2   103  MET103     -0.2864
    101  CB        -2.3320   35.9970   11.3030 C.3   103  MET103      0.0413
    102  CG        -2.4240   36.8170   12.5790 C.3   103  MET103      0.0598
    103  SD        -0.8790   37.4230   13.1490 S.3   103  MET103     -0.1393
    104  CE        -0.2150   35.9370   13.2620 C.3   103  MET103      0.0692
@<TRIPOS>BOND
     1     1     2    1
     2     5     2    1
     3     5     6    1
     4     8     7   ar
     5     2     3    1
     6     6     7    1
     7     7     9   ar
     8     3     4    2
     9   100    99    2
    10    99    98    1
    11    69    70    1
    12    13    12    2
    13    27    26    2
    14    12    11    1
    15    98   101    1
    16    98    97    1
    17    10    11    1
    18    24    25    1
    19    70    71    1
    20   101   102    1
    21    72    71    2
    22    11    14    1
    23    26    25    1
    24    71    73   am
    25    44    45    2
    26    44    43    1
    27    97    93   am
    28    94    93    2
    29    25    28    1
    30    77    78    1
    31    77    74    1
    32    79    81   ar
    33    79    78   ar
    34    95    96    1
    35    95    92    1
    36    93    92    1
    37    73    74    1
    38    28    29    1
    39    48    47    1
    40    81    83   ar
    41    78    80   ar
    42    43    42    1
    43    43    46    1
    44   102   103    1
    45    29    30    1
    46    14    15    1
    47    74    75    1
    48    47    46    1
    49    47    49    1
    50    92    91    1
    51   103   104    1
    52    80    82   ar
    53    83    82   ar
    54    83    84    1
    55    91    87   am
    56    15    16   ar
    57    15    17   ar
    58    32    30   ar
    59    30    31   ar
    60    16    18   ar
    61    85    75   am
    62    85    86    1
    63    75    76    2
    64    17    20   ar
    65    17    19   ar
    66    90    89    1
    67    87    86    1
    68    87    88    2
    69    18    19   ar
    70    35    34    1
    71    35    36    2
    72    20    22   ar
    73    34    37    1
    74    34    33    1
    75    86    89    1
    76    50    51    1
    77    19    21   ar
    78    37    38    1
    79    53    52    2
    80    22    23   ar
    81    40    39   ar
    82    21    23   ar
    83    52    51    1
    84    51    54    1
    85    38    39    1
    86    39    41   ar
    87    54    55    1
    88    55    56    1
    89    61    62    1
    90    64    63    2
    91    57    56    1
    92    57    58    2
    93    60    58    1
    94    58    59    1
    95    63    62    1
    96    62    65    1
    97    65    66    1
    98    68    66   am
    99    66    67    2
