@<TRIPOS>MOLECULE
tmp/2cguA00.pdb
 147 137 0 0 0
SMALL
GASTEIGER

@<TRIPOS>ATOM
      1  N          2.0230   -9.0660   28.9070 N.3     8  GLN8       -0.1245
      2  CA         1.2330   -9.7930   27.8970 C.3     8  GLN8        0.1566
      3  C          1.9870   -9.9730   26.5880 C.2     8  GLN8        0.2260
      4  O          2.8160   -9.1380   26.2200 O.2     8  GLN8       -0.2867
      5  CB        -0.1060   -9.0900   27.6190 C.3     8  GLN8        0.0367
      6  CG         0.0280   -7.6160   27.2550 C.3     8  GLN8        0.0905
      7  CD        -1.2970   -6.8830   27.2900 C.2     8  GLN8        0.2608
      8  OE1       -2.0880   -6.9740   26.3500 O.2     8  GLN8       -0.2717
      9  NE2       -1.5350   -6.1410   28.3700 N.am    8  GLN8       -0.0878
     10  N          2.3130   -9.9280   22.4600 N.3    10  LEU10      -0.1231
     11  CA         1.8860   -8.7460   21.6900 C.3    10  LEU10       0.1693
     12  C          1.9090   -8.9580   20.1630 C.2    10  LEU10       0.2592
     13  O          1.0000   -8.5140   19.4380 O.2    10  LEU10      -0.2718
     14  CB         2.7130   -7.5110   22.1250 C.3    10  LEU10       0.0284
     15  CG         2.1650   -6.0820   22.3300 C.3    10  LEU10       0.0019
     16  CD1        0.9930   -5.9990   23.3090 C.3    10  LEU10       0.0001
     17  CD2        3.2860   -5.1450   22.7870 C.3    10  LEU10       0.0001
     18  N          2.9410   -9.6510   19.6900 N.am   11  GLY11      -0.1957
     19  CA         3.1090   -9.9060   18.2750 C.3    11  GLY11       0.1869
     20  C          3.9700  -11.1320   18.1210 C.2    11  GLY11       0.2309
     21  O          5.1570  -11.0270   17.8430 O.2    11  GLY11      -0.2863
     22  N          6.9490  -10.2740   20.5490 N.3    18  VAL18      -0.1245
     23  CA         7.0530   -8.9230   21.0890 C.3    18  VAL18       0.1561
     24  C          6.1700   -8.8810   22.3140 C.2    18  VAL18       0.2260
     25  O          5.0060   -9.2780   22.2380 O.2    18  VAL18      -0.2867
     26  CB         6.6160   -7.8520   20.0560 C.3    18  VAL18       0.0252
     27  CG1        6.4780   -6.4840   20.7150 C.3    18  VAL18       0.0019
     28  CG2        7.6210   -7.8040   18.9240 C.3    18  VAL18       0.0019
     29  N          7.7050   -2.1940   24.4100 N.3    31  ALA31      -0.1245
     30  CA         7.5950   -3.4320   23.6670 C.3    31  ALA31       0.1562
     31  C          8.9640   -4.0490   23.6930 C.2    31  ALA31       0.2260
     32  O          9.9390   -3.4160   23.2790 O.2    31  ALA31      -0.2867
     33  CB         7.1770   -3.1370   22.2400 C.3    31  ALA31       0.0290
     34  N         10.9450   -6.8720   22.0500 N.3    33  LYS33      -0.1245
     35  CA        10.9810   -7.8860   21.0230 C.3    33  LYS33       0.1561
     36  C         12.0300   -8.8410   21.5060 C.2    33  LYS33       0.2260
     37  O         13.0570   -8.3840   22.0250 O.2    33  LYS33      -0.2867
     38  CB        11.3930   -7.3040   19.6880 C.3    33  LYS33       0.0271
     39  CG        10.9800   -8.1630   18.5120 C.3    33  LYS33       0.0035
     40  CD        12.0740   -8.2170   17.4640 C.3    33  LYS33       0.0206
     41  CE        11.5450   -8.5050   16.0660 C.3    33  LYS33       0.1093
     42  NZ        11.7660   -7.3400   15.1590 N.3    33  LYS33      -0.1314
     43  N         19.3010   -5.4000   12.0870 N.3    47  GLU47      -0.1245
     44  CA        18.1070   -4.7860   12.6550 C.3    47  GLU47       0.1567
     45  C         18.4670   -3.7410   13.6850 C.2    47  GLU47       0.2260
     46  O         17.9740   -2.6240   13.6270 O.2    47  GLU47      -0.2867
     47  CB        17.1950   -5.8460   13.2760 C.3    47  GLU47       0.0388
     48  CG        15.8780   -5.3400   13.8370 C.3    47  GLU47       0.1160
     49  CD        14.8070   -6.4300   13.8240 C.2    47  GLU47       0.3649
     50  OE1       15.1360   -7.5530   13.3770 O.co2  47  GLU47      -0.2457
     51  OE2       13.6400   -6.1840   14.2470 O.co2  47  GLU47      -0.2457
     52  N          8.9850    3.8890   14.8510 N.3    60  VAL60      -0.1245
     53  CA         9.0380    3.3330   16.2070 C.3    60  VAL60       0.1561
     54  C         10.3780    3.5950   16.8580 C.2    60  VAL60       0.2260
     55  O         11.4290    3.2670   16.2660 O.2    60  VAL60      -0.2867
     56  CB         8.8430    1.8120   16.2010 C.3    60  VAL60       0.0252
     57  CG1        9.0400    1.2430   17.6220 C.3    60  VAL60       0.0019
     58  CG2        7.4750    1.4680   15.6730 C.3    60  VAL60       0.0019
     59  N         11.7330   -1.1980   22.5360 N.3    76  LEU76      -0.1231
     60  CA        11.0680   -0.5270   21.4150 C.3    76  LEU76       0.1693
     61  C          9.8540    0.1990   21.8730 C.2    76  LEU76       0.2592
     62  O          9.1150   -0.3320   22.6980 O.2    76  LEU76      -0.2718
     63  CB        10.5790   -1.5760   20.4250 C.3    76  LEU76       0.0284
     64  CG        11.7160   -2.2500   19.6780 C.3    76  LEU76       0.0019
     65  CD1       11.2030   -3.3960   18.8650 C.3    76  LEU76       0.0001
     66  CD2       12.4670   -1.1830   18.8410 C.3    76  LEU76       0.0001
     67  N          9.6250    1.3970   21.3290 N.am   77  GLU77      -0.1966
     68  CA         8.4210    2.1500   21.6460 C.3    77  GLU77       0.1733
     69  C          7.2680    1.1680   21.6290 C.2    77  GLU77       0.2616
     70  O          7.1850    0.2800   20.7850 O.2    77  GLU77      -0.2715
     71  CB         8.2110    3.2660   20.6390 C.3    77  GLU77       0.0429
     72  CG         7.1980    4.3250   21.0180 C.3    77  GLU77       0.1163
     73  CD         7.1290    5.4280   19.9610 C.2    77  GLU77       0.3649
     74  OE1        6.1850    6.2510   20.0290 O.co2  77  GLU77      -0.2457
     75  OE2        8.0010    5.4730   19.0480 O.co2  77  GLU77      -0.2457
     76  N          6.4260    1.2680   22.6320 N.am   78  TYR78      -0.1960
     77  CA         5.1770    0.5430   22.6140 C.3    78  TYR78       0.1771
     78  C          4.1290    1.4790   21.9630 C.2    78  TYR78       0.2620
     79  O          4.0260    2.6930   22.2710 O.2    78  TYR78      -0.2715
     80  CB         4.8000    0.0790   24.0270 C.3    78  TYR78       0.0574
     81  CG         3.3650   -0.3350   24.2110 C.ar   78  TYR78      -0.0198
     82  CD1        2.9260   -1.5690   23.7590 C.ar   78  TYR78      -0.0009
     83  CD2        2.4500    0.5140   24.8470 C.ar   78  TYR78      -0.0009
     84  CE1        1.6080   -1.9790   23.9340 C.ar   78  TYR78       0.0417
     85  CE2        1.1250    0.1330   25.0260 C.ar   78  TYR78       0.0417
     86  CZ         0.7100   -1.1200   24.5610 C.ar   78  TYR78       0.1957
     87  OH        -0.5890   -1.5510   24.7140 O.3    78  TYR78      -0.2866
     88  N          3.3630    0.9360   21.0310 N.am   79  CYS79      -0.1954
     89  CA         2.3620    1.7770   20.3980 C.3    79  CYS79       0.1843
     90  C          0.9890    1.2860   20.8580 C.2    79  CYS79       0.2626
     91  O          0.5200    0.2070   20.4670 O.2    79  CYS79      -0.2714
     92  CB         2.5960    1.8340   18.8660 C.3    79  CYS79       0.0997
     93  SG         4.2940    2.3360   18.3500 S.3    79  CYS79      -0.0797
     94  N          0.3770    2.0410   21.7640 N.am   80  SER80      -0.1936
     95  CA        -0.8720    1.5820   22.3960 C.3    80  SER80       0.2055
     96  C         -2.0520    1.5860   21.4140 C.2    80  SER80       0.2644
     97  O         -3.1060    1.0760   21.7260 O.2    80  SER80      -0.2714
     98  CB        -1.1730    2.3680   23.6940 C.3    80  SER80       0.2130
     99  OG        -1.1970    3.7680   23.4700 O.3    80  SER80      -0.2179
    100  N         -1.8500    2.1180   20.2090 N.am   81  GLY81      -0.1939
    101  CA        -2.8510    2.0240   19.1540 C.3    81  GLY81       0.2014
    102  C         -2.9470    0.6450   18.5290 C.2    81  GLY81       0.2639
    103  O         -4.0320    0.1890   18.1280 O.2    81  GLY81      -0.2714
    104  N         -1.8080   -0.0320   18.4460 N.am   82  GLY82      -0.1939
    105  CA        -1.7320   -1.2960   17.7250 C.3    82  GLY82       0.2014
    106  C         -1.5040   -1.1080   16.2300 C.2    82  GLY82       0.2638
    107  O         -0.9500   -0.0790   15.7810 O.2    82  GLY82      -0.2714
    108  N         -1.9710   -2.0770   15.4530 N.am   83  GLU83      -0.1977
    109  CA        -1.6690   -2.1190   14.0360 C.3    83  GLU83       0.1602
    110  C         -2.7380   -1.4070   13.3070 C.2    83  GLU83       0.2287
    111  O         -3.9040   -1.6040   13.6200 O.2    83  GLU83      -0.2864
    112  CB        -1.6720   -3.5510   13.5300 C.3    83  GLU83       0.0415
    113  CG        -0.6100   -4.4060   14.1930 C.3    83  GLU83       0.1163
    114  CD        -0.5960   -5.8400   13.7100 C.2    83  GLU83       0.3649
    115  OE1        0.3440   -6.5560   14.1090 O.co2  83  GLU83      -0.2457
    116  OE2       -1.4900   -6.2350   12.9230 O.co2  83  GLU83      -0.2457
    117  N          0.2350   -4.4410    8.7390 N.3   126  GLU126     -0.1245
    118  CA         0.6610   -5.1270    9.9620 C.3   126  GLU126      0.1567
    119  C          1.8660   -4.4280   10.5710 C.2   126  GLU126      0.2260
    120  O          2.0520   -4.4780   11.7550 O.2   126  GLU126     -0.2867
    121  CB         0.9610   -6.6310    9.7210 C.3   126  GLU126      0.0388
    122  CG        -0.1620   -7.4510    9.0710 C.3   126  GLU126      0.1160
    123  CD        -0.3440   -7.2510    7.5350 C.2   126  GLU126      0.3649
    124  OE1        0.1340   -6.2540    6.9000 O.co2 126  GLU126     -0.2457
    125  OE2       -1.0280   -8.1130    6.9290 O.co2 126  GLU126     -0.2457
    126  N          2.3470    0.8010   13.0990 N.3   129  LEU129     -0.1245
    127  CA         1.7920    0.8060   14.4220 C.3   129  LEU129      0.1561
    128  C          1.2410    2.1780   14.7280 C.2   129  LEU129      0.2260
    129  O          1.7050    3.1670   14.1610 O.2   129  LEU129     -0.2867
    130  CB         2.8390    0.3420   15.4100 C.3   129  LEU129      0.0270
    131  CG         3.2940   -1.0840   15.0410 C.3   129  LEU129      0.0019
    132  CD1        4.3780   -1.6140   16.0060 C.3   129  LEU129      0.0001
    133  CD2        2.1350   -2.0780   14.9190 C.3   129  LEU129      0.0001
    134  N          7.3720    0.2860   11.5810 N.3   139  SER139     -0.1202
    135  CA         7.7670   -0.7330   12.5420 C.3   139  SER139      0.2020
    136  C          8.5420   -1.8040   11.7900 C.2   139  SER139      0.2618
    137  O          8.3860   -1.9500   10.5590 O.2   139  SER139     -0.2717
    138  CB         6.4770   -1.3460   13.1150 C.3   139  SER139      0.2103
    139  OG         6.6360   -2.6380   13.6400 O.3   139  SER139     -0.2182
    140  N          9.3720   -2.5310   12.5400 N.am  140  ASP140     -0.1973
    141  CA        10.0350   -3.7700   12.1320 C.3   140  ASP140      0.1709
    142  C         11.0430   -3.6680   10.9880 C.2   140  ASP140      0.2293
    143  O         10.7000   -3.8570    9.7900 O.2   140  ASP140     -0.2864
    144  CB         9.0620   -4.9260   11.9140 C.3   140  ASP140      0.1436
    145  CG         9.7960   -6.2280   11.5940 C.2   140  ASP140      0.3671
    146  OD1        9.1150   -7.2800   11.3410 O.co2 140  ASP140     -0.2456
    147  OD2       11.0760   -6.2600   11.5870 O.co2 140  ASP140     -0.2456
@<TRIPOS>BOND
     1   124   123   ar
     2   125   123   ar
     3   123   122    1
     4   117   118    1
     5   122   121    1
     6   121   118    1
     7   143   142    2
     8   118   119    1
     9   137   136    2
    10   119   120    2
    11   142   141    1
    12   146   145   ar
    13   134   135    1
    14   147   145   ar
    15   145   144    1
    16   136   140   am
    17   136   135    1
    18   144   141    1
    19    43    44    1
    20   141   140    1
    21   135   138    1
    22    44    47    1
    23    44    45    1
    24   116   114   ar
    25   126   127    1
    26   138   139    1
    27    47    48    1
    28   110   111    2
    29   110   109    1
    30    50    49   ar
    31   112   109    1
    32   112   113    1
    33    46    45    2
    34   114   115   ar
    35   114   113    1
    36    49    48    1
    37    49    51   ar
    38   109   108    1
    39   129   128    2
    40   127   128    1
    41   127   130    1
    42    52    53    1
    43   133   131    1
    44   131   130    1
    45   131   132    1
    46    42    41    1
    47   108   106   am
    48    58    56    1
    49   107   106    2
    50    41    40    1
    51    56    53    1
    52    56    57    1
    53    53    54    1
    54   106   105    1
    55    55    54    2
    56    40    39    1
    57   105   104    1
    58    21    20    2
    59    20    19    1
    60   103   102    2
    61    19    18    1
    62    93    92    1
    63   104   102   am
    64    39    38    1
    65   102   101    1
    66    66    64    1
    67    65    64    1
    68    92    89    1
    69    28    26    1
    70    75    73   ar
    71   101   100    1
    72    13    12    2
    73    64    63    1
    74    38    35    1
    75    18    12   am
    76    73    74   ar
    77    73    72    1
    78    26    27    1
    79    26    23    1
    80    12    11    1
    81   100    96   am
    82    89    90    1
    83    89    88    1
    84    63    60    1
    85    91    90    2
    86    22    23    1
    87    71    72    1
    88    71    68    1
    89    70    69    2
    90    90    94   am
    91    35    36    1
    92    35    34    1
    93    88    78   am
    94    23    24    1
    95    67    68    1
    96    67    61   am
    97    96    97    2
    98    96    95    1
    99    60    61    1
   100    60    59    1
   101    36    37    2
   102    69    68    1
   103    69    76   am
   104    11    14    1
   105    11    10    1
   106    94    95    1
   107    61    62    2
   108    78    79    2
   109    78    77    1
   110    14    15    1
   111    25    24    2
   112    33    30    1
   113    15    17    1
   114    15    16    1
   115    95    98    1
   116    77    76    1
   117    77    80    1
   118    32    31    2
   119    99    98    1
   120    30    31    1
   121    30    29    1
   122    82    84   ar
   123    82    81   ar
   124    84    86   ar
   125    80    81    1
   126    81    83   ar
   127    86    87    1
   128    86    85   ar
   129    83    85   ar
   130     4     3    2
   131     8     7    2
   132     3     2    1
   133     6     7    1
   134     6     5    1
   135     7     9   am
   136     5     2    1
   137     2     1    1
