@<TRIPOS>MOLECULE
tmp/2cgvA00.pdb
 136 128 0 0 0
SMALL
GASTEIGER

@<TRIPOS>ATOM
      1  N          2.3060  -10.2480   22.2360 N.3    10  LEU10      -0.1231
      2  CA         1.8440   -9.1180   21.4000 C.3    10  LEU10       0.1693
      3  C          1.8470   -9.3730   19.8640 C.2    10  LEU10       0.2592
      4  O          1.0410   -8.7860   19.1070 O.2    10  LEU10      -0.2718
      5  CB         2.6350   -7.8430   21.7710 C.3    10  LEU10       0.0284
      6  CG         2.0410   -6.4830   22.2210 C.3    10  LEU10       0.0019
      7  CD1        0.8520   -6.5480   23.1830 C.3    10  LEU10       0.0001
      8  CD2        3.1470   -5.5920   22.8050 C.3    10  LEU10       0.0001
      9  N          2.7360  -10.2520   19.4090 N.am   11  GLY11      -0.1957
     10  CA         2.8900  -10.4840   17.9850 C.3    11  GLY11       0.1869
     11  C          3.7940  -11.6650   17.7690 C.2    11  GLY11       0.2309
     12  O          4.9620  -11.5270   17.3840 O.2    11  GLY11      -0.2863
     13  N         10.6570  -15.8220   14.0460 N.3    15  TYR15      -0.1241
     14  CA        11.8110  -15.5650   14.9460 C.3    15  TYR15       0.1605
     15  C         11.6060  -15.8870   16.4720 C.2    15  TYR15       0.2264
     16  O         12.4290  -16.5970   17.1110 O.2    15  TYR15      -0.2867
     17  CB        12.3610  -14.1000   14.7590 C.3    15  TYR15       0.0534
     18  CG        11.4590  -13.0490   14.0590 C.ar   15  TYR15      -0.0201
     19  CD1       10.4100  -12.3920   14.7570 C.ar   15  TYR15      -0.0009
     20  CD2       11.6770  -12.6960   12.7020 C.ar   15  TYR15      -0.0009
     21  CE1        9.5690  -11.4240   14.0880 C.ar   15  TYR15       0.0417
     22  CE2       10.8660  -11.7380   12.0490 C.ar   15  TYR15       0.0417
     23  CZ         9.8340  -11.1140   12.7380 C.ar   15  TYR15       0.1957
     24  OH         9.1090  -10.2100   12.0280 O.3    15  TYR15      -0.2866
     25  N          6.9060  -10.6580   20.2620 N.3    18  VAL18      -0.1245
     26  CA         7.0030   -9.3380   20.8750 C.3    18  VAL18       0.1561
     27  C          6.0550   -9.4490   22.0480 C.2    18  VAL18       0.2260
     28  O          4.9350   -9.9530   21.8770 O.2    18  VAL18      -0.2867
     29  CB         6.5530   -8.2250   19.9030 C.3    18  VAL18       0.0252
     30  CG1        6.3500   -6.9230   20.6040 C.3    18  VAL18       0.0019
     31  CG2        7.5730   -8.0450   18.8200 C.3    18  VAL18       0.0019
     32  N          7.6540   -2.4280   24.3270 N.3    31  ALA31      -0.1245
     33  CA         7.7130   -3.7130   23.6360 C.3    31  ALA31       0.1562
     34  C          9.1190   -4.2910   23.5820 C.2    31  ALA31       0.2260
     35  O         10.1030   -3.5950   23.2940 O.2    31  ALA31      -0.2867
     36  CB         7.1230   -3.6070   22.2420 C.3    31  ALA31       0.0290
     37  N          8.9750    3.3650   14.8020 N.3    60  VAL60      -0.1245
     38  CA         8.9800    2.7940   16.1510 C.3    60  VAL60       0.1561
     39  C         10.3320    3.0330   16.8050 C.2    60  VAL60       0.2260
     40  O         11.3410    2.7640   16.1640 O.2    60  VAL60      -0.2867
     41  CB         8.6890    1.2930   16.0590 C.3    60  VAL60       0.0252
     42  CG1        8.9730    0.5680   17.3600 C.3    60  VAL60       0.0019
     43  CG2        7.2470    1.1030   15.5530 C.3    60  VAL60       0.0019
     44  N         11.7780   -1.7050   22.4130 N.3    76  LEU76      -0.1231
     45  CA        11.0630   -0.9370   21.3270 C.3    76  LEU76       0.1693
     46  C          9.8270   -0.2800   21.7920 C.2    76  LEU76       0.2592
     47  O          9.1230   -0.8350   22.6220 O.2    76  LEU76      -0.2718
     48  CB        10.5790   -1.8520   20.1930 C.3    76  LEU76       0.0284
     49  CG        11.6480   -2.6260   19.4730 C.3    76  LEU76       0.0019
     50  CD1       11.0380   -3.7330   18.7180 C.3    76  LEU76       0.0001
     51  CD2       12.5130   -1.6580   18.6050 C.3    76  LEU76       0.0001
     52  N          9.5440    0.8670   21.1860 N.am   77  GLU77      -0.1966
     53  CA         8.3800    1.6900   21.4980 C.3    77  GLU77       0.1733
     54  C          7.1770    0.7400   21.4450 C.2    77  GLU77       0.2616
     55  O          6.9570    0.0520   20.4360 O.2    77  GLU77      -0.2715
     56  CB         8.2550    2.8200   20.4900 C.3    77  GLU77       0.0429
     57  CG         7.1200    3.7750   20.7260 C.3    77  GLU77       0.1163
     58  CD         7.1530    4.9710   19.7460 C.2    77  GLU77       0.3649
     59  OE1        6.3690    5.9260   19.9450 O.co2  77  GLU77      -0.2457
     60  OE2        7.9670    4.9840   18.7820 O.co2  77  GLU77      -0.2457
     61  N          6.4670    0.6410   22.5640 N.am   78  TYR78      -0.1960
     62  CA         5.2010   -0.0570   22.5810 C.3    78  TYR78       0.1771
     63  C          4.1690    0.8280   21.9050 C.2    78  TYR78       0.2620
     64  O          4.0870    2.0640   22.1720 O.2    78  TYR78      -0.2715
     65  CB         4.7860   -0.4210   24.0220 C.3    78  TYR78       0.0574
     66  CG         3.3390   -0.8050   24.2000 C.ar   78  TYR78      -0.0198
     67  CD1        2.9080   -2.0330   23.7650 C.ar   78  TYR78      -0.0009
     68  CD2        2.4120    0.0630   24.8180 C.ar   78  TYR78      -0.0009
     69  CE1        1.6300   -2.4280   23.9100 C.ar   78  TYR78       0.0417
     70  CE2        1.0790   -0.3090   24.9780 C.ar   78  TYR78       0.0417
     71  CZ         0.7000   -1.5700   24.4980 C.ar   78  TYR78       0.1957
     72  OH        -0.5570   -2.1580   24.5780 O.3    78  TYR78      -0.2866
     73  N          3.3980    0.2110   21.0140 N.am   79  CYS79      -0.1954
     74  CA         2.3160    0.9930   20.3650 C.3    79  CYS79       0.1843
     75  C          0.9420    0.4580   20.8080 C.2    79  CYS79       0.2626
     76  O          0.5640   -0.6720   20.4020 O.2    79  CYS79      -0.2714
     77  CB         2.5190    1.0810   18.8240 C.3    79  CYS79       0.0997
     78  SG         4.1360    1.7420   18.2670 S.3    79  CYS79      -0.0797
     79  N          0.2850    1.2220   21.7120 N.am   80  SER80      -0.1950
     80  CA        -0.9730    0.8120   22.3930 C.3    80  SER80       0.1924
     81  C         -2.1360    0.7830   21.4110 C.2    80  SER80       0.2314
     82  O         -3.1590    0.1030   21.6640 O.2    80  SER80      -0.2863
     83  CB        -1.3210    1.6730   23.6240 C.3    80  SER80       0.2116
     84  OG        -1.8030    2.9710   23.2590 O.3    80  SER80      -0.2180
     85  N         -2.0270   -0.6640   18.4920 N.3    82  GLY82      -0.1210
     86  CA        -1.9570   -1.8850   17.6650 C.3    82  GLY82       0.1956
     87  C         -1.5280   -1.6840   16.1960 C.2    82  GLY82       0.2611
     88  O         -0.8780   -0.7180   15.8300 O.2    82  GLY82      -0.2717
     89  N         -1.9280   -2.5860   15.3330 N.am   83  GLU83      -0.1979
     90  CA        -1.6690   -2.4580   13.9110 C.3    83  GLU83       0.1602
     91  C         -2.7120   -1.6880   13.1230 C.2    83  GLU83       0.2287
     92  O         -3.9120   -1.7270   13.4230 O.2    83  GLU83      -0.2864
     93  CB        -1.5930   -3.8380   13.2850 C.3    83  GLU83       0.0415
     94  CG        -0.7550   -4.7520   14.1220 C.3    83  GLU83       0.1163
     95  CD        -0.7090   -6.1490   13.5900 C.2    83  GLU83       0.3649
     96  OE1        0.2140   -6.8740   14.0700 O.co2  83  GLU83      -0.2457
     97  OE2       -1.5680   -6.4830   12.7040 O.co2  83  GLU83      -0.2457
     98  N          0.2580   -4.7680    8.6300 N.3   126  GLU126     -0.1231
     99  CA         0.7490   -5.4600    9.7890 C.3   126  GLU126      0.1699
    100  C          2.0170   -4.7970   10.3010 C.2   126  GLU126      0.2592
    101  O          2.4110   -5.0660   11.3910 O.2   126  GLU126     -0.2718
    102  CB         1.0710   -6.9150    9.4330 C.3   126  GLU126      0.0402
    103  CG        -0.1210   -7.7100    9.0070 C.3   126  GLU126      0.1161
    104  CD        -0.4210   -7.6370    7.5200 C.2   126  GLU126      0.3649
    105  OE1       -0.3180   -6.5330    6.9410 O.co2 126  GLU126     -0.2457
    106  OE2       -0.8060   -8.6790    6.9310 O.co2 126  GLU126     -0.2457
    107  N          2.7650   -4.0740    9.4840 N.am  127  ASN127     -0.1974
    108  CA         3.9990   -3.5070   10.0120 C.3   127  ASN127      0.1688
    109  C          3.8630   -2.0190   10.2260 C.2   127  ASN127      0.2292
    110  O          4.8610   -1.3380   10.3870 O.2   127  ASN127     -0.2864
    111  CB         5.2380   -3.7620    9.1560 C.3   127  ASN127      0.1181
    112  CG         5.7150   -5.1580    9.2590 C.2   127  ASN127      0.2629
    113  OD1        5.6450   -5.7220   10.3100 O.2   127  ASN127     -0.2716
    114  ND2        6.1940   -5.7400    8.1640 N.am  127  ASN127     -0.0877
    115  N          2.2910    0.3710   12.9880 N.3   129  LEU129     -0.1245
    116  CA         1.6570    0.3760   14.3060 C.3   129  LEU129      0.1561
    117  C          1.2020    1.7500   14.7060 C.2   129  LEU129      0.2260
    118  O          1.7560    2.7640   14.2930 O.2   129  LEU129     -0.2867
    119  CB         2.5800   -0.1770   15.3690 C.3   129  LEU129      0.0270
    120  CG         3.0830   -1.5770   15.0130 C.3   129  LEU129      0.0019
    121  CD1        3.9090   -2.2820   16.1430 C.3   129  LEU129      0.0001
    122  CD2        1.9160   -2.4240   14.6620 C.3   129  LEU129      0.0001
    123  N          7.3140   -0.1000   11.5470 N.3   139  SER139     -0.1202
    124  CA         7.7500   -1.1070   12.5110 C.3   139  SER139      0.2020
    125  C          8.4510   -2.2450   11.8140 C.2   139  SER139      0.2618
    126  O          8.1020   -2.5950   10.5970 O.2   139  SER139     -0.2717
    127  CB         6.5130   -1.6250   13.2700 C.3   139  SER139      0.2103
    128  OG         6.5910   -2.9640   13.6350 O.3   139  SER139     -0.2182
    129  N          9.4330   -2.8160   12.5640 N.am  140  ASP140     -0.1973
    130  CA        10.1460   -4.0870   12.1690 C.3   140  ASP140      0.1709
    131  C         11.0620   -3.9420   10.9460 C.2   140  ASP140      0.2293
    132  O         10.6340   -4.0690    9.8200 O.2   140  ASP140     -0.2864
    133  CB         9.1900   -5.2580   11.9410 C.3   140  ASP140      0.1436
    134  CG         9.9060   -6.5990   11.7840 C.2   140  ASP140      0.3671
    135  OD1        9.2040   -7.6440   11.7610 O.co2 140  ASP140     -0.2456
    136  OD2       11.1490   -6.7240   11.6080 O.co2 140  ASP140     -0.2456
@<TRIPOS>BOND
     1   106   104   ar
     2   105   104   ar
     3   104   103    1
     4   114   112   am
     5    98    99    1
     6   103   102    1
     7   111   112    1
     8   111   108    1
     9   112   113    2
    10   102    99    1
    11   107   108    1
    12   107   100   am
    13    99   100    1
    14   132   131    2
    15   108   109    1
    16   109   110    2
    17   100   101    2
    18   126   125    2
    19   131   130    1
    20   123   124    1
    21   136   134   ar
    22   135   134   ar
    23   134   133    1
    24   125   124    1
    25   125   129   am
    26   133   130    1
    27    24    23    1
    28    22    20   ar
    29    22    23   ar
    30   130   129    1
    31   124   127    1
    32    20    18   ar
    33    97    95   ar
    34    23    21   ar
    35   115   116    1
    36    91    92    2
    37    91    90    1
    38   127   128    1
    39    93    90    1
    40    93    94    1
    41    95    96   ar
    42    95    94    1
    43    90    89    1
    44    13    14    1
    45    18    19   ar
    46    18    17    1
    47    21    19   ar
    48   118   117    2
    49   116   117    1
    50   116   119    1
    51   122   120    1
    52    17    14    1
    53    37    38    1
    54    14    15    1
    55   120   119    1
    56   120   121    1
    57    89    87   am
    58    43    41    1
    59    88    87    2
    60    41    38    1
    61    41    42    1
    62    38    39    1
    63    40    39    2
    64    87    86    1
    65    15    16    2
    66    12    11    2
    67    86    85    1
    68    11    10    1
    69    10     9    1
    70    78    77    1
    71    51    49    1
    72    50    49    1
    73    60    58   ar
    74    31    29    1
    75    77    74    1
    76     4     3    2
    77     9     3   am
    78    49    48    1
    79    58    59   ar
    80    58    57    1
    81     3     2    1
    82    29    30    1
    83    29    26    1
    84    48    45    1
    85    25    26    1
    86    74    75    1
    87    74    73    1
    88    76    75    2
    89    55    54    2
    90    56    57    1
    91    56    53    1
    92    75    79   am
    93    26    27    1
    94    73    63   am
    95    52    53    1
    96    52    46   am
    97    45    46    1
    98    45    44    1
    99     2     5    1
   100     2     1    1
   101    81    82    2
   102    81    80    1
   103    54    53    1
   104    54    61   am
   105    79    80    1
   106     5     6    1
   107    46    47    2
   108    28    27    2
   109    63    64    2
   110    63    62    1
   111     6     8    1
   112     6     7    1
   113    36    33    1
   114    80    83    1
   115    61    62    1
   116    62    65    1
   117    84    83    1
   118    35    34    2
   119    34    33    1
   120    33    32    1
   121    67    69   ar
   122    67    66   ar
   123    69    71   ar
   124    65    66    1
   125    66    68   ar
   126    71    72    1
   127    71    70   ar
   128    68    70   ar
