@<TRIPOS>MOLECULE
tmp/2cgwA00.pdb
 139 129 0 0 0
SMALL
GASTEIGER

@<TRIPOS>ATOM
      1  N          2.2060  -10.1380   23.2780 N.3    10  LEU10      -0.1231
      2  CA         1.6360   -9.0140   22.5580 C.3    10  LEU10       0.1693
      3  C          1.5160   -9.4220   21.1090 C.2    10  LEU10       0.2592
      4  O          0.6770   -8.9170   20.3580 O.2    10  LEU10      -0.2718
      5  CB         2.5870   -7.8370   22.6930 C.3    10  LEU10       0.0284
      6  CG         2.0790   -6.4460   23.0380 C.3    10  LEU10       0.0019
      7  CD1        1.1000   -6.4610   24.2060 C.3    10  LEU10       0.0001
      8  CD2        3.2900   -5.6020   23.3570 C.3    10  LEU10       0.0001
      9  N          2.3860  -10.3570   20.7490 N.am   11  GLY11      -0.1957
     10  CA         2.4540  -10.9420   19.4340 C.3    11  GLY11       0.1869
     11  C          3.4790  -12.0470   19.5130 C.2    11  GLY11       0.2309
     12  O          4.4820  -11.9230   20.2230 O.2    11  GLY11      -0.2863
     13  N         10.6530  -15.6630   14.2630 N.3    15  TYR15      -0.1241
     14  CA        11.8850  -15.4980   15.0450 C.3    15  TYR15       0.1605
     15  C         11.6880  -15.6760   16.5600 C.2    15  TYR15       0.2264
     16  O         12.5050  -16.3240   17.2300 O.2    15  TYR15      -0.2867
     17  CB        12.5350  -14.1350   14.7430 C.3    15  TYR15       0.0534
     18  CG        11.6030  -13.1070   14.1120 C.ar   15  TYR15      -0.0201
     19  CD1       10.5830  -12.4950   14.8590 C.ar   15  TYR15      -0.0009
     20  CD2       11.7490  -12.7420   12.7650 C.ar   15  TYR15      -0.0009
     21  CE1        9.7230  -11.5470   14.2760 C.ar   15  TYR15       0.0417
     22  CE2       10.8970  -11.7900   12.1700 C.ar   15  TYR15       0.0417
     23  CZ         9.8860  -11.1980   12.9340 C.ar   15  TYR15       0.1957
     24  OH         9.0440  -10.2680   12.3580 O.3    15  TYR15      -0.2866
     25  N          7.0060  -10.8460   20.7760 N.3    18  VAL18      -0.1245
     26  CA         7.0820   -9.5100   21.3320 C.3    18  VAL18       0.1561
     27  C          6.2690   -9.5330   22.6230 C.2    18  VAL18       0.2260
     28  O          5.1230   -9.9920   22.6320 O.2    18  VAL18      -0.2867
     29  CB         6.5390   -8.4530   20.3360 C.3    18  VAL18       0.0252
     30  CG1        6.4560   -7.0850   20.9770 C.3    18  VAL18       0.0019
     31  CG2        7.4140   -8.4010   19.0970 C.3    18  VAL18       0.0019
     32  N          7.8620   -2.4250   24.6750 N.3    31  ALA31      -0.1245
     33  CA         7.7570   -3.7080   24.0220 C.3    31  ALA31       0.1562
     34  C          9.1590   -4.2660   23.8620 C.2    31  ALA31       0.2260
     35  O         10.1350   -3.5330   23.6400 O.2    31  ALA31      -0.2867
     36  CB         7.0550   -3.5780   22.6760 C.3    31  ALA31       0.0290
     37  N         11.1200   -7.3830   21.8560 N.3    33  LYS33      -0.1245
     38  CA        11.1440   -8.4490   20.8810 C.3    33  LYS33       0.1561
     39  C         12.1970   -9.4270   21.3950 C.2    33  LYS33       0.2260
     40  O         13.2940   -9.0230   21.7990 O.2    33  LYS33      -0.2867
     41  CB        11.4850   -7.8900   19.5030 C.3    33  LYS33       0.0271
     42  CG        11.3290   -8.8550   18.3420 C.3    33  LYS33       0.0035
     43  CD        11.7860   -8.1910   17.0520 C.3    33  LYS33       0.0206
     44  CE        11.7970   -9.1510   15.8750 C.3    33  LYS33       0.1093
     45  NZ        12.2590   -8.4810   14.6250 N.3    33  LYS33      -0.1314
     46  N         19.5350   -6.0710   11.9520 N.3    46  GLU46      -0.1245
     47  CA        18.3400   -5.4050   12.4670 C.3    46  GLU46       0.1567
     48  C         18.6170   -4.3910   13.5950 C.2    46  GLU46       0.2260
     49  O         18.0440   -3.2800   13.5810 O.2    46  GLU46      -0.2867
     50  CB        17.2560   -6.4150   12.8720 C.3    46  GLU46       0.0388
     51  CG        16.1440   -5.8400   13.7450 C.3    46  GLU46       0.1160
     52  CD        14.9890   -6.7930   13.9750 C.2    46  GLU46       0.3649
     53  OE1       15.1190   -7.9810   13.6390 O.co2  46  GLU46      -0.2457
     54  OE2       13.9370   -6.3440   14.4770 O.co2  46  GLU46      -0.2457
     55  N          9.0240    3.3010   14.9460 N.3    59  VAL59      -0.1245
     56  CA         9.0890    2.6950   16.2760 C.3    59  VAL59       0.1561
     57  C         10.4700    2.9480   16.9490 C.2    59  VAL59       0.2260
     58  O         11.4960    2.4980   16.4390 O.2    59  VAL59      -0.2867
     59  CB         8.8500    1.1710   16.2080 C.3    59  VAL59       0.0252
     60  CG1        9.1450    0.5280   17.5970 C.3    59  VAL59       0.0019
     61  CG2        7.4200    0.8700   15.7380 C.3    59  VAL59       0.0019
     62  N         11.8510   -1.7510   22.5060 N.3    75  LEU75      -0.1231
     63  CA        11.1810   -0.9500   21.4820 C.3    75  LEU75       0.1693
     64  C          9.9770   -0.1900   22.0080 C.2    75  LEU75       0.2592
     65  O          9.2720   -0.6660   22.8960 O.2    75  LEU75      -0.2718
     66  CB        10.7290   -1.8490   20.3240 C.3    75  LEU75       0.0284
     67  CG        11.7790   -2.6740   19.5590 C.3    75  LEU75       0.0019
     68  CD1       11.1320   -3.7540   18.7130 C.3    75  LEU75       0.0001
     69  CD2       12.6520   -1.7710   18.7080 C.3    75  LEU75       0.0001
     70  N          9.7530    0.9930   21.4480 N.am   76  GLU76      -0.1966
     71  CA         8.5680    1.7960   21.7120 C.3    76  GLU76       0.1733
     72  C          7.3330    0.8920   21.7580 C.2    76  GLU76       0.2616
     73  O          7.1010    0.0650   20.8530 O.2    76  GLU76      -0.2715
     74  CB         8.4180    2.8450   20.5990 C.3    76  GLU76       0.0429
     75  CG         7.6420    4.0950   20.9630 C.3    76  GLU76       0.1163
     76  CD         7.4190    5.0370   19.7790 C.2    76  GLU76       0.3649
     77  OE1        6.3610    5.7060   19.7760 O.co2  76  GLU76      -0.2457
     78  OE2        8.2700    5.1180   18.8490 O.co2  76  GLU76      -0.2457
     79  N          6.5600    1.0070   22.8300 N.am   77  TYR77      -0.1960
     80  CA         5.2690    0.3310   22.8960 C.3    77  TYR77       0.1771
     81  C          4.1980    1.1320   22.1580 C.2    77  TYR77       0.2619
     82  O          4.0210    2.3350   22.3900 O.2    77  TYR77      -0.2715
     83  CB         4.8280    0.0590   24.3460 C.3    77  TYR77       0.0574
     84  CG         3.4560   -0.6040   24.4590 C.ar   77  TYR77      -0.0198
     85  CD1        3.1820   -1.7970   23.8230 C.ar   77  TYR77      -0.0009
     86  CD2        2.4290   -0.0090   25.1810 C.ar   77  TYR77      -0.0009
     87  CE1        1.9270   -2.4050   23.9220 C.ar   77  TYR77       0.0417
     88  CE2        1.1740   -0.6120   25.2820 C.ar   77  TYR77       0.0417
     89  CZ         0.9280   -1.7960   24.6460 C.ar   77  TYR77       0.1957
     90  OH        -0.3290   -2.3270   24.7640 O.3    77  TYR77      -0.2866
     91  N          3.4660    0.4390   21.2950 N.am   78  CYS78      -0.1968
     92  CA         2.4160    1.0800   20.5130 C.3    78  CYS78       0.1712
     93  C          1.0670    0.4900   20.9070 C.2    78  CYS78       0.2296
     94  O          0.6950   -0.5970   20.4820 O.2    78  CYS78      -0.2864
     95  CB         2.7600    0.9540   19.0200 C.3    78  CYS78       0.0983
     96  SG         4.3320    1.7590   18.5990 S.3    78  CYS78      -0.0798
     97  N         -2.1380   -0.8010   18.6740 N.3    81  GLY81      -0.1210
     98  CA        -2.1100   -1.9750   17.8140 C.3    81  GLY81       0.1956
     99  C         -1.7180   -1.6750   16.3530 C.2    81  GLY81       0.2611
    100  O         -1.0210   -0.7190   16.0780 O.2    81  GLY81      -0.2717
    101  N         -2.2090   -2.5020   15.4350 N.am   82  GLU82      -0.1979
    102  CA        -1.7880   -2.5220   14.0530 C.3    82  GLU82       0.1602
    103  C         -2.8010   -1.7980   13.2160 C.2    82  GLU82       0.2287
    104  O         -4.0130   -1.9370   13.4520 O.2    82  GLU82      -0.2864
    105  CB        -1.7580   -3.9520   13.5340 C.3    82  GLU82       0.0415
    106  CG        -0.5820   -4.7720   14.0050 C.3    82  GLU82       0.1163
    107  CD        -0.6780   -6.2410   13.6270 C.2    82  GLU82       0.3649
    108  OE1        0.0160   -7.0320   14.2930 O.co2  82  GLU82      -0.2457
    109  OE2       -1.4230   -6.6120   12.6860 O.co2  82  GLU82      -0.2457
    110  N          2.7490   -4.1770    9.6760 N.3   126  ASN126     -0.1240
    111  CA         3.9830   -3.5250   10.1500 C.3   126  ASN126      0.1653
    112  C          3.8540   -2.0280   10.4010 C.2   126  ASN126      0.2266
    113  O          4.8630   -1.3230   10.5300 O.2   126  ASN126     -0.2867
    114  CB         5.1450   -3.7970    9.1700 C.3   126  ASN126      0.1155
    115  CG         5.6050   -5.2490    9.2480 C.2   126  ASN126      0.2627
    116  OD1        5.4590   -5.8780   10.2950 O.2   126  ASN126     -0.2716
    117  ND2        6.1480   -5.7740    8.1800 N.am  126  ASN126     -0.0877
    118  N          2.2020    0.3240   13.0670 N.3   128  LEU128     -0.1245
    119  CA         1.6740    0.2380   14.4150 C.3   128  LEU128      0.1561
    120  C          1.1420    1.6020   14.7960 C.2   128  LEU128      0.2260
    121  O          1.5410    2.6260   14.2160 O.2   128  LEU128     -0.2867
    122  CB         2.7500   -0.2400   15.4030 C.3   128  LEU128      0.0270
    123  CG         3.3600   -1.6350   15.1080 C.3   128  LEU128      0.0019
    124  CD1        4.3440   -2.0320   16.2080 C.3   128  LEU128      0.0001
    125  CD2        2.3230   -2.7470   14.8880 C.3   128  LEU128      0.0001
    126  N          7.3730   -0.2850   11.7330 N.3   138  SER138     -0.1202
    127  CA         7.8110   -1.3300   12.6280 C.3   138  SER138      0.2020
    128  C          8.5180   -2.4780   11.8910 C.2   138  SER138      0.2618
    129  O          8.2030   -2.7690   10.7140 O.2   138  SER138     -0.2717
    130  CB         6.5530   -1.9010   13.2790 C.3   138  SER138      0.2103
    131  OG         6.8460   -2.9640   14.1550 O.3   138  SER138     -0.2182
    132  N          9.4540   -3.1370   12.5950 N.am  139  ASP139     -0.1973
    133  CA        10.1330   -4.3640   12.1250 C.3   139  ASP139      0.1709
    134  C         11.1130   -4.1860   10.9730 C.2   139  ASP139      0.2293
    135  O         10.7560   -4.3230    9.7860 O.2   139  ASP139     -0.2864
    136  CB         9.1450   -5.4820   11.7670 C.3   139  ASP139      0.1436
    137  CG         9.8270   -6.8560   11.6110 C.2   139  ASP139      0.3671
    138  OD1        9.1120   -7.8780   11.4440 O.co2 139  ASP139     -0.2456
    139  OD2       11.0630   -7.0240   11.6000 O.co2 139  ASP139     -0.2456
@<TRIPOS>BOND
     1   117   115   am
     2   114   115    1
     3   114   111    1
     4   115   116    2
     5   110   111    1
     6   135   134    2
     7   111   112    1
     8   112   113    2
     9   129   128    2
    10   134   133    1
    11   138   137   ar
    12   139   137   ar
    13   137   136    1
    14   126   127    1
    15   136   133    1
    16   128   132   am
    17   128   127    1
    18    46    47    1
    19   133   132    1
    20    22    20   ar
    21    22    23   ar
    22    24    23    1
    23    47    50    1
    24    47    48    1
    25   127   130    1
    26   109   107   ar
    27    20    18   ar
    28    50    51    1
    29    23    21   ar
    30   118   119    1
    31   103   104    2
    32   103   102    1
    33   130   131    1
    34   105   106    1
    35   105   102    1
    36    49    48    2
    37   107   106    1
    38   107   108   ar
    39    53    52   ar
    40    51    52    1
    41    52    54   ar
    42   102   101    1
    43    18    17    1
    44    18    19   ar
    45   121   120    2
    46    13    14    1
    47    21    19   ar
    48   119   120    1
    49   119   122    1
    50    45    44    1
    51    17    14    1
    52   125   123    1
    53    55    56    1
    54    14    15    1
    55   123   122    1
    56   123   124    1
    57   101    99   am
    58    61    59    1
    59    44    43    1
    60   100    99    2
    61    59    56    1
    62    59    60    1
    63    56    57    1
    64    99    98    1
    65    58    57    2
    66    15    16    2
    67    43    42    1
    68    98    97    1
    69    42    41    1
    70    96    95    1
    71    69    67    1
    72    68    67    1
    73    78    76   ar
    74    95    92    1
    75    31    29    1
    76    10    11    1
    77    10     9    1
    78    41    38    1
    79    11    12    2
    80    67    66    1
    81    77    76   ar
    82    76    75    1
    83    66    63    1
    84    29    30    1
    85    29    26    1
    86     4     3    2
    87    94    93    2
    88    92    93    1
    89    92    91    1
    90    74    75    1
    91    74    71    1
    92     9     3   am
    93    25    26    1
    94    73    72    2
    95    38    39    1
    96    38    37    1
    97     3     2    1
    98    91    81   am
    99    26    27    1
   100    39    40    2
   101    70    71    1
   102    70    64   am
   103    63    64    1
   104    63    62    1
   105    71    72    1
   106    72    79   am
   107    64    65    2
   108    81    82    2
   109    81    80    1
   110     2     5    1
   111     2     1    1
   112    27    28    2
   113    36    33    1
   114     5     6    1
   115    79    80    1
   116    80    83    1
   117     6     8    1
   118     6     7    1
   119    35    34    2
   120    85    87   ar
   121    85    84   ar
   122    34    33    1
   123    87    89   ar
   124    33    32    1
   125    83    84    1
   126    84    86   ar
   127    89    90    1
   128    89    88   ar
   129    86    88   ar
