@<TRIPOS>MOLECULE
tmp/2cgxA00.pdb
 143 133 0 0 0
SMALL
GASTEIGER

@<TRIPOS>ATOM
      1  N          2.4280   -9.8990   22.5620 N.3    10  LEU10      -0.1231
      2  CA         2.0050   -8.8460   21.6200 C.3    10  LEU10       0.1693
      3  C          1.9830   -9.2310   20.1340 C.2    10  LEU10       0.2592
      4  O          1.1460   -8.7280   19.3710 O.2    10  LEU10      -0.2718
      5  CB         2.8880   -7.5990   21.7910 C.3    10  LEU10       0.0284
      6  CG         2.3490   -6.2620   22.3160 C.3    10  LEU10       0.0019
      7  CD1        1.1930   -6.3750   23.3190 C.3    10  LEU10       0.0001
      8  CD2        3.5230   -5.4760   22.8840 C.3    10  LEU10       0.0001
      9  N          2.9110  -10.0930   19.7300 N.am   11  GLY11      -0.1957
     10  CA         3.0890  -10.4300   18.3290 C.3    11  GLY11       0.1869
     11  C          4.0120  -11.6170   18.1580 C.2    11  GLY11       0.2309
     12  O          5.1860  -11.4610   17.8040 O.2    11  GLY11      -0.2863
     13  N          5.5600  -13.8890   16.2880 N.3    13  GLY13      -0.1225
     14  CA         5.9990  -14.1970   14.9320 C.3    13  GLY13       0.1811
     15  C          6.7460  -15.5220   14.7940 C.2    13  GLY13       0.2280
     16  O          6.3830  -16.5230   15.4400 O.2    13  GLY13      -0.2866
     17  N         10.6340  -15.6130   14.4480 N.3    15  TYR15      -0.1241
     18  CA        11.8480  -15.4000   15.2500 C.3    15  TYR15       0.1605
     19  C         11.6370  -15.6530   16.7610 C.2    15  TYR15       0.2264
     20  O         12.4290  -16.3460   17.4280 O.2    15  TYR15      -0.2867
     21  CB        12.4300  -13.9870   15.0110 C.3    15  TYR15       0.0534
     22  CG        11.4900  -12.9760   14.3620 C.ar   15  TYR15      -0.0201
     23  CD1       10.5120  -12.3050   15.1100 C.ar   15  TYR15      -0.0009
     24  CD2       11.5880  -12.6830   12.9950 C.ar   15  TYR15      -0.0009
     25  CE1        9.6420  -11.3650   14.4980 C.ar   15  TYR15       0.0417
     26  CE2       10.7320  -11.7530   12.3800 C.ar   15  TYR15       0.0417
     27  CZ         9.7650  -11.0990   13.1360 C.ar   15  TYR15       0.1957
     28  OH         8.9330  -10.1890   12.5270 O.3    15  TYR15      -0.2866
     29  N          7.0250  -10.5930   20.5290 N.3    18  VAL18      -0.1245
     30  CA         7.0750   -9.2730   21.0710 C.3    18  VAL18       0.1561
     31  C          6.1800   -9.3160   22.3020 C.2    18  VAL18       0.2260
     32  O          5.0340   -9.7890   22.2240 O.2    18  VAL18      -0.2867
     33  CB         6.5810   -8.2500   20.0410 C.3    18  VAL18       0.0252
     34  CG1        6.4330   -6.8830   20.6610 C.3    18  VAL18       0.0019
     35  CG2        7.5690   -8.1910   18.9140 C.3    18  VAL18       0.0019
     36  N          7.6390   -2.3350   24.4630 N.3    31  ALA31      -0.1245
     37  CA         7.6370   -3.6070   23.7630 C.3    31  ALA31       0.1562
     38  C          9.0310   -4.1980   23.7700 C.2    31  ALA31       0.2260
     39  O         10.0310   -3.5240   23.4840 O.2    31  ALA31      -0.2867
     40  CB         7.1310   -3.4420   22.3460 C.3    31  ALA31       0.0290
     41  N         11.1930   -7.2580   22.1430 N.3    33  LYS33      -0.1245
     42  CA        11.1770   -8.2910   21.1410 C.3    33  LYS33       0.1561
     43  C         12.2000   -9.2950   21.5890 C.2    33  LYS33       0.2260
     44  O         13.3440   -8.9300   21.9290 O.2    33  LYS33      -0.2867
     45  CB        11.5340   -7.7380   19.7630 C.3    33  LYS33       0.0271
     46  CG        11.1280   -8.6470   18.6430 C.3    33  LYS33       0.0035
     47  CD        12.2250   -8.7180   17.6250 C.3    33  LYS33       0.0206
     48  CE        11.6860   -8.7410   16.2080 C.3    33  LYS33       0.1093
     49  NZ        11.8170   -7.3840   15.6030 N.3    33  LYS33      -0.1314
     50  N          9.0720    3.3910   14.8300 N.3    60  VAL60      -0.1245
     51  CA         9.0280    2.8550   16.1560 C.3    60  VAL60       0.1561
     52  C         10.4200    3.0710   16.8250 C.2    60  VAL60       0.2260
     53  O         11.4320    2.5550   16.3540 O.2    60  VAL60      -0.2867
     54  CB         8.6740    1.3500   16.1590 C.3    60  VAL60       0.0252
     55  CG1        8.8160    0.7570   17.6190 C.3    60  VAL60       0.0019
     56  CG2        7.2530    1.0880   15.5820 C.3    60  VAL60       0.0019
     57  N         11.7030   -1.5260   22.5670 N.3    76  LEU76      -0.1231
     58  CA        11.0420   -0.8140   21.4720 C.3    76  LEU76       0.1693
     59  C          9.8110   -0.0710   21.9450 C.2    76  LEU76       0.2592
     60  O          9.0720   -0.5590   22.7900 O.2    76  LEU76      -0.2718
     61  CB        10.6030   -1.7970   20.3750 C.3    76  LEU76       0.0284
     62  CG        11.7070   -2.5700   19.6550 C.3    76  LEU76       0.0019
     63  CD1       11.0890   -3.6440   18.7890 C.3    76  LEU76       0.0001
     64  CD2       12.5680   -1.6140   18.8740 C.3    76  LEU76       0.0001
     65  N          9.6080    1.1220   21.4100 N.am   77  GLU77      -0.1966
     66  CA         8.4060    1.8810   21.6680 C.3    77  GLU77       0.1733
     67  C          7.2340    0.9250   21.6130 C.2    77  GLU77       0.2616
     68  O          7.0560    0.1460   20.6370 O.2    77  GLU77      -0.2715
     69  CB         8.2480    2.9470   20.5860 C.3    77  GLU77       0.0429
     70  CG         7.3140    4.1120   20.9120 C.3    77  GLU77       0.1163
     71  CD         7.2240    5.1360   19.7670 C.2    77  GLU77       0.3649
     72  OE1        6.2270    5.9000   19.7700 O.co2  77  GLU77      -0.2457
     73  OE2        8.1290    5.1840   18.8670 O.co2  77  GLU77      -0.2457
     74  N          6.4470    0.9710   22.6770 N.am   78  TYR78      -0.1960
     75  CA         5.1340    0.3910   22.6990 C.3    78  TYR78       0.1771
     76  C          4.1220    1.2730   21.9680 C.2    78  TYR78       0.2619
     77  O          4.0420    2.4640   22.1700 O.2    78  TYR78      -0.2715
     78  CB         4.6910    0.1620   24.1490 C.3    78  TYR78       0.0574
     79  CG         3.3020   -0.4210   24.2960 C.ar   78  TYR78      -0.0198
     80  CD1        2.9810   -1.6580   23.7500 C.ar   78  TYR78      -0.0009
     81  CD2        2.3040    0.2810   24.9790 C.ar   78  TYR78      -0.0009
     82  CE1        1.7160   -2.1800   23.8860 C.ar   78  TYR78       0.0417
     83  CE2        1.0270   -0.2550   25.1230 C.ar   78  TYR78       0.0417
     84  CZ         0.7400   -1.4750   24.5600 C.ar   78  TYR78       0.1957
     85  OH        -0.5100   -2.0470   24.6750 O.3    78  TYR78      -0.2866
     86  N          3.3080    0.6690   21.1270 N.am   79  CYS79      -0.1968
     87  CA         2.3010    1.4560   20.4190 C.3    79  CYS79       0.1712
     88  C          0.9840    0.8940   20.8500 C.2    79  CYS79       0.2296
     89  O          0.6500   -0.2330   20.4750 O.2    79  CYS79      -0.2864
     90  CB         2.5290    1.3580   18.9030 C.3    79  CYS79       0.0983
     91  SG         4.1320    2.0090   18.4210 S.3    79  CYS79      -0.0798
     92  N         -2.0710   -0.4730   18.5270 N.3    82  GLY82      -0.1210
     93  CA        -2.0080   -1.7120   17.7750 C.3    82  GLY82       0.1956
     94  C         -1.6740   -1.4710   16.2730 C.2    82  GLY82       0.2611
     95  O         -1.1430   -0.4320   15.9180 O.2    82  GLY82      -0.2717
     96  N         -2.0350   -2.4170   15.4220 N.am   83  GLU83      -0.1979
     97  CA        -1.6570   -2.4630   14.0130 C.3    83  GLU83       0.1602
     98  C         -2.6880   -1.7130   13.2140 C.2    83  GLU83       0.2287
     99  O         -3.8600   -1.8760   13.4810 O.2    83  GLU83      -0.2864
    100  CB        -1.6740   -3.9170   13.5100 C.3    83  GLU83       0.0415
    101  CG        -0.7060   -4.8240   14.2800 C.3    83  GLU83       0.1163
    102  CD        -0.6390   -6.2610   13.8000 C.2    83  GLU83       0.3649
    103  OE1        0.2640   -6.9820   14.3030 O.co2  83  GLU83      -0.2457
    104  OE2       -1.4530   -6.6750   12.9380 O.co2  83  GLU83      -0.2457
    105  N          0.2860   -4.7870    8.8130 N.3   126  GLU126     -0.1231
    106  CA         0.7850   -5.5200    9.9900 C.3   126  GLU126      0.1699
    107  C          1.9990   -4.8500   10.5810 C.2   126  GLU126      0.2592
    108  O          2.2530   -4.9660   11.7980 O.2   126  GLU126     -0.2718
    109  CB         1.1450   -7.0050    9.6570 C.3   126  GLU126      0.0402
    110  CG        -0.0330   -7.8160    9.1060 C.3   126  GLU126      0.1161
    111  CD        -0.3420   -7.6730    7.6200 C.2   126  GLU126      0.3649
    112  OE1       -0.1000   -6.6100    6.9540 O.co2 126  GLU126     -0.2457
    113  OE2       -0.9130   -8.6750    7.1070 O.co2 126  GLU126     -0.2457
    114  N          2.7540   -4.1290    9.7430 N.am  127  ASN127     -0.1974
    115  CA         4.0110   -3.5350   10.1700 C.3   127  ASN127      0.1688
    116  C          3.8410   -2.0560   10.3830 C.2   127  ASN127      0.2292
    117  O          4.8060   -1.3120   10.4080 O.2   127  ASN127     -0.2864
    118  CB         5.1380   -3.8110    9.1360 C.3   127  ASN127      0.1181
    119  CG         5.6680   -5.2830    9.2350 C.2   127  ASN127      0.2629
    120  OD1        5.4830   -5.9290   10.2700 O.2   127  ASN127     -0.2716
    121  ND2        6.3230   -5.7810    8.2090 N.am  127  ASN127     -0.0877
    122  N          2.2210    0.5320   13.0230 N.3   129  LEU129     -0.1245
    123  CA         1.6520    0.5180   14.3920 C.3   129  LEU129      0.1561
    124  C          1.1230    1.8830   14.7270 C.2   129  LEU129      0.2260
    125  O          1.5190    2.8790   14.1230 O.2   129  LEU129     -0.2867
    126  CB         2.7300    0.0820   15.4200 C.3   129  LEU129      0.0270
    127  CG         3.2030   -1.3650   15.1670 C.3   129  LEU129      0.0019
    128  CD1        4.1870   -1.8800   16.2400 C.3   129  LEU129      0.0001
    129  CD2        2.0550   -2.3870   15.0290 C.3   129  LEU129      0.0001
    130  N          7.3550   -0.0570   11.6720 N.3   139  SER139     -0.1202
    131  CA         7.7990   -1.0520   12.6260 C.3   139  SER139      0.2020
    132  C          8.5410   -2.1790   11.9440 C.2   139  SER139      0.2618
    133  O          8.2480   -2.4870   10.7680 O.2   139  SER139     -0.2717
    134  CB         6.5300   -1.6660   13.2650 C.3   139  SER139      0.2103
    135  OG         6.8200   -2.7300   14.1240 O.3   139  SER139     -0.2182
    136  N          9.4630   -2.8230   12.6860 N.am  140  ASP140     -0.1973
    137  CA        10.1760   -4.0760   12.2910 C.3   140  ASP140      0.1709
    138  C         11.1860   -3.9700   11.1340 C.2   140  ASP140      0.2293
    139  O         10.8430   -4.1310    9.9400 O.2   140  ASP140     -0.2864
    140  CB         9.2100   -5.2190   11.9940 C.3   140  ASP140      0.1436
    141  CG         9.9340   -6.5840   11.8360 C.2   140  ASP140      0.3671
    142  OD1        9.2320   -7.6150   11.6430 O.co2 140  ASP140     -0.2456
    143  OD2       11.1840   -6.7050   11.8180 O.co2 140  ASP140     -0.2456
@<TRIPOS>BOND
     1   112   111   ar
     2   113   111   ar
     3   111   110    1
     4   121   119   am
     5   105   106    1
     6   110   109    1
     7   118   119    1
     8   118   115    1
     9   119   120    2
    10   109   106    1
    11   114   115    1
    12   114   107   am
    13   139   138    2
    14   106   107    1
    15   115   116    1
    16   116   117    2
    17   107   108    2
    18   133   132    2
    19   138   137    1
    20   142   141   ar
    21   130   131    1
    22   143   141   ar
    23   141   140    1
    24   132   131    1
    25   132   136   am
    26   140   137    1
    27   137   136    1
    28    26    24   ar
    29    26    27   ar
    30    28    27    1
    31   131   134    1
    32   104   102   ar
    33    24    22   ar
    34   122   123    1
    35    27    25   ar
    36    98    99    2
    37    98    97    1
    38   134   135    1
    39   100    97    1
    40   100   101    1
    41   102   101    1
    42   102   103   ar
    43    97    96    1
    44   125   124    2
    45    22    21    1
    46    22    23   ar
    47   123   124    1
    48   123   126    1
    49    17    18    1
    50    25    23   ar
    51    15    14    1
    52    15    16    2
    53    50    51    1
    54    14    13    1
    55    21    18    1
    56   129   127    1
    57   127   126    1
    58   127   128    1
    59    18    19    1
    60    96    94   am
    61    56    54    1
    62    49    48    1
    63    95    94    2
    64    51    54    1
    65    51    52    1
    66    54    55    1
    67    48    47    1
    68    94    93    1
    69    53    52    2
    70    19    20    2
    71    47    46    1
    72    93    92    1
    73    12    11    2
    74    11    10    1
    75    10     9    1
    76    91    90    1
    77    46    45    1
    78    63    62    1
    79    73    71   ar
    80    64    62    1
    81    90    87    1
    82    35    33    1
    83     4     3    2
    84    62    61    1
    85     9     3   am
    86    45    42    1
    87    71    72   ar
    88    71    70    1
    89    33    34    1
    90    33    30    1
    91     3     2    1
    92    61    58    1
    93    87    88    1
    94    87    86    1
    95    89    88    2
    96    29    30    1
    97    69    70    1
    98    69    66    1
    99    68    67    2
   100    30    31    1
   101    86    76   am
   102    42    43    1
   103    42    41    1
   104    65    66    1
   105    65    59   am
   106    58    59    1
   107    58    57    1
   108    43    44    2
   109    67    66    1
   110    67    74   am
   111     2     5    1
   112     2     1    1
   113     5     6    1
   114    59    60    2
   115    76    77    2
   116    76    75    1
   117    32    31    2
   118     6     8    1
   119     6     7    1
   120    40    37    1
   121    74    75    1
   122    75    78    1
   123    39    38    2
   124    80    82   ar
   125    80    79   ar
   126    37    38    1
   127    37    36    1
   128    82    84   ar
   129    78    79    1
   130    79    81   ar
   131    84    85    1
   132    84    83   ar
   133    81    83   ar
