@<TRIPOS>MOLECULE
tmp/2ch1D00.pdb
 110 104 0 0 0
SMALL
GASTEIGER

@<TRIPOS>ATOM
      1  N         -9.4360   29.2000  -25.3510 N.3    76  SER76      -0.1202
      2  CA        -8.2690   28.7530  -24.5910 C.3    76  SER76       0.2020
      3  C         -8.1150   27.2220  -24.7440 C.2    76  SER76       0.2619
      4  O         -8.8630   26.5780  -25.5090 O.2    76  SER76      -0.2717
      5  CB        -8.3690   29.2010  -23.1470 C.3    76  SER76       0.2103
      6  OG        -9.3990   28.4890  -22.4720 O.3    76  SER76      -0.2182
      7  N         -7.1390   26.6250  -24.0630 N.am   77  ALA77      -0.1965
      8  CA        -6.7840   25.2220  -24.3710 C.3    77  ALA77       0.1728
      9  C         -7.9180   24.2300  -24.1260 C.2    77  ALA77       0.2616
     10  O         -8.0290   23.2260  -24.8320 O.2    77  ALA77      -0.2715
     11  CB        -5.5280   24.8260  -23.6240 C.3    77  ALA77       0.0334
     12  N         -8.7880   24.5490  -23.1590 N.am   78  HIS78      -0.1973
     13  CA       -10.0510   23.8190  -22.9500 C.3    78  HIS78       0.1656
     14  C        -10.8730   23.6460  -24.2200 C.2    78  HIS78       0.2291
     15  O        -11.3900   22.5430  -24.4680 O.2    78  HIS78      -0.2864
     16  CB       -10.9230   24.4900  -21.9000 C.3    78  HIS78       0.0771
     17  CG       -10.5770   24.1160  -20.4940 C.ar   78  HIS78       0.0820
     18  ND1       -9.5860   24.7590  -19.7690 N.ar   78  HIS78      -0.2267
     19  CD2      -11.1030   23.1780  -19.6680 C.ar   78  HIS78       0.1154
     20  CE1       -9.5290   24.2390  -18.5550 C.ar   78  HIS78       0.1986
     21  NE2      -10.4380   23.2800  -18.4700 N.ar   78  HIS78      -0.2212
     22  N         -9.5230   20.8740  -26.3470 N.3    81  MET81      -0.1245
     23  CA       -10.0690   19.6310  -25.8220 C.3    81  MET81       0.1570
     24  C        -11.5000   19.4820  -26.2600 C.2    81  MET81       0.2261
     25  O        -11.8440   18.4490  -26.8060 O.2    81  MET81      -0.2867
     26  CB        -9.9470   19.5620  -24.2880 C.3    81  MET81       0.0387
     27  CG       -10.3520   18.2080  -23.6880 C.3    81  MET81       0.0595
     28  SD       -10.2960   18.2240  -21.8810 S.3    81  MET81      -0.1393
     29  CE        -8.5350   18.1410  -21.6070 C.3    81  MET81       0.0692
     30  N         -6.5850   17.1000  -16.0990 N.3   103  TRP103     -0.1241
     31  CA        -6.9800   17.3930  -17.4830 C.3   103  TRP103      0.1605
     32  C         -7.8180   16.2580  -18.0360 C.2   103  TRP103      0.2264
     33  O         -8.8580   16.4890  -18.6650 O.2   103  TRP103     -0.2867
     34  CB        -5.7660   17.7490  -18.3650 C.3   103  TRP103      0.0550
     35  CG        -4.9280   18.8120  -17.6950 C.ar  103  TRP103      0.0003
     36  CD1       -3.6400   18.6770  -17.2200 C.ar  103  TRP103      0.0946
     37  CD2       -5.3400   20.1570  -17.3500 C.ar  103  TRP103      0.0152
     38  NE1       -3.2200   19.8540  -16.6210 N.ar  103  TRP103     -0.2442
     39  CE2       -4.2400   20.7740  -16.6790 C.ar  103  TRP103      0.0810
     40  CE3       -6.5260   20.8980  -17.5390 C.ar  103  TRP103      0.0012
     41  CZ2       -4.2950   22.0920  -16.2070 C.ar  103  TRP103      0.0191
     42  CZ3       -6.5860   22.2100  -17.0570 C.ar  103  TRP103      0.0001
     43  CH2       -5.4740   22.7960  -16.4010 C.ar  103  TRP103      0.0015
     44  N         -3.0440   12.7310  -21.6830 N.3   149  THR149     -0.1218
     45  CA        -2.2720   13.9120  -21.2960 C.3   149  THR149      0.1862
     46  C         -0.7840   13.6410  -21.5060 C.2   149  THR149      0.2287
     47  O         -0.2360   12.6720  -20.9400 O.2   149  THR149     -0.2866
     48  CB        -2.4970   14.2660  -19.8000 C.3   149  THR149      0.1770
     49  OG1       -3.8410   14.7100  -19.5960 O.3   149  THR149     -0.2211
     50  CG2       -1.5760   15.3540  -19.3400 C.3   149  THR149      0.0375
     51  N          2.1620   16.1210  -21.0590 N.3   151  GLY151     -0.1225
     52  CA         2.7870   16.6830  -19.8630 C.3   151  GLY151      0.1811
     53  C          1.6840   17.1690  -18.9660 C.2   151  GLY151      0.2280
     54  O          0.7970   17.8930  -19.4280 O.2   151  GLY151     -0.2866
     55  N          0.3580   19.3950  -15.9850 N.3   153  SER153     -0.1217
     56  CA         0.7770   20.5770  -15.2570 C.3   153  SER153      0.1889
     57  C          0.1800   20.6010  -13.8620 C.2   153  SER153      0.2288
     58  O          0.4720   21.5120  -13.0670 O.2   153  SER153     -0.2866
     59  CB         0.3710   21.8420  -16.0220 C.3   153  SER153      0.2089
     60  OG        -1.0260   21.8410  -16.2670 O.3   153  SER153     -0.2183
     61  N         -2.9930   15.6190  -25.4160 N.3   178  ASP178     -0.1239
     62  CA        -2.9910   16.9560  -24.8520 C.3   178  ASP178      0.1674
     63  C         -1.5490   17.3150  -24.6110 C.2   178  ASP178      0.2266
     64  O         -0.9660   16.8940  -23.6200 O.2   178  ASP178     -0.2867
     65  CB        -3.7710   16.9430  -23.5310 C.3   178  ASP178      0.1410
     66  CG        -3.6980   18.2620  -22.7710 C.2   178  ASP178      0.3668
     67  OD1       -2.6290   18.9550  -22.7790 O.co2 178  ASP178     -0.2456
     68  OD2       -4.7330   18.6030  -22.1420 O.co2 178  ASP178     -0.2456
     69  N         -0.4230   20.4730  -24.1460 N.3   180  VAL180     -0.1231
     70  CA        -0.4570   21.8860  -23.7560 C.3   180  VAL180      0.1692
     71  C          0.7540   22.2990  -22.9420 C.2   180  VAL180      0.2591
     72  O          1.3810   23.3560  -23.2060 O.2   180  VAL180     -0.2718
     73  CB        -1.7770   22.2310  -23.0240 C.3   180  VAL180      0.0266
     74  CG1       -1.7370   23.6250  -22.4150 C.3   180  VAL180      0.0020
     75  CG2       -2.9900   22.0290  -23.9490 C.3   180  VAL180      0.0020
     76  N          1.1360   21.4680  -21.9650 N.am  181  ALA181     -0.1980
     77  CA         2.2710   21.8190  -21.0610 C.3   181  ALA181      0.1597
     78  C          3.6050   21.2410  -21.5110 C.2   181  ALA181      0.2287
     79  O          4.6720   21.6470  -21.0130 O.2   181  ALA181     -0.2864
     80  CB         1.9590   21.4150  -19.6240 C.3   181  ALA181      0.0319
     81  N         -3.3170   19.2420  -29.3760 N.3   199  TYR199     -0.1241
     82  CA        -3.4680   20.6640  -29.2330 C.3   199  TYR199      0.1605
     83  C         -2.4330   21.1390  -28.2080 C.2   199  TYR199      0.2264
     84  O         -2.0170   20.3450  -27.3580 O.2   199  TYR199     -0.2867
     85  CB        -4.9000   21.0090  -28.8160 C.3   199  TYR199      0.0534
     86  CG        -5.3740   20.3440  -27.5260 C.ar  199  TYR199     -0.0201
     87  CD1       -5.3390   21.0320  -26.3090 C.ar  199  TYR199     -0.0009
     88  CD2       -5.8780   19.0210  -27.5320 C.ar  199  TYR199     -0.0009
     89  CE1       -5.7770   20.4230  -25.1230 C.ar  199  TYR199      0.0417
     90  CE2       -6.3240   18.3990  -26.3570 C.ar  199  TYR199      0.0417
     91  CZ        -6.2600   19.1160  -25.1580 C.ar  199  TYR199      0.1957
     92  OH        -6.7070   18.5190  -23.9890 O.3   199  TYR199     -0.2866
     93  N         -0.2340   30.0490  -23.9100 N.3   203  GLN203     -0.1231
     94  CA         0.3590   30.7590  -22.7430 C.3   203  GLN203      0.1698
     95  C          1.2480   29.8630  -21.8830 C.2   203  GLN203      0.2592
     96  O          1.6480   30.2400  -20.7550 O.2   203  GLN203     -0.2718
     97  CB        -0.7220   31.4190  -21.8640 C.3   203  GLN203      0.0381
     98  CG        -1.4550   30.4600  -20.9240 C.3   203  GLN203      0.0905
     99  CD        -2.5710   29.5840  -21.5930 C.2   203  GLN203      0.2608
    100  OE1       -3.3180   28.9190  -20.8850 O.2   203  GLN203     -0.2717
    101  NE2       -2.6750   29.5870  -22.9190 N.am  203  GLN203     -0.0878
    102  N          1.5350   28.6650  -22.3910 N.am  204  LYS204     -0.1980
    103  CA         2.4390   27.7890  -21.6760 C.3   204  LYS204      0.1596
    104  C          3.8630   27.9810  -22.2230 C.2   204  LYS204      0.2287
    105  O          4.3880   29.1070  -22.1800 O.2   204  LYS204     -0.2864
    106  CB         1.9210   26.3300  -21.6420 C.3   204  LYS204      0.0298
    107  CG         1.2460   25.9210  -20.3010 C.3   204  LYS204      0.0038
    108  CD        -0.2440   26.2690  -20.2090 C.3   204  LYS204      0.0206
    109  CE        -0.8670   25.7080  -18.8930 C.3   204  LYS204      0.1093
    110  NZ        -2.4080   25.6210  -18.9880 N.3   204  LYS204     -0.1314
@<TRIPOS>BOND
     1    81    82    1
     2    82    85    1
     3    82    83    1
     4    85    86    1
     5    83    84    2
     6    88    86   ar
     7    88    90   ar
     8    86    87   ar
     9    25    24    2
    10    90    91   ar
    11    22    23    1
    12    87    89   ar
    13    24    23    1
    14    23    26    1
    15     4     3    2
    16    61    62    1
    17     1     2    1
    18    91    89   ar
    19    91    92    1
    20    62    63    1
    21    62    65    1
    22    10     9    2
    23     3     2    1
    24     3     7   am
    25    63    64    2
    26     2     5    1
    27    15    14    2
    28     8     9    1
    29     8     7    1
    30     8    11    1
    31    26    27    1
    32    14    13    1
    33    69    70    1
    34     9    12   am
    35    75    73    1
    36    93    94    1
    37    70    73    1
    38    70    71    1
    39    27    28    1
    40    65    66    1
    41    72    71    2
    42    12    13    1
    43     5     6    1
    44    73    74    1
    45    13    16    1
    46    71    76   am
    47   101    99   am
    48    67    66   ar
    49    66    68   ar
    50    94    95    1
    51    94    97    1
    52   102    95   am
    53   102   103    1
    54   104   105    2
    55   104   103    1
    56    76    77    1
    57    16    17    1
    58    95    96    2
    59    28    29    1
    60    97    98    1
    61    44    45    1
    62   103   106    1
    63   106   107    1
    64    99    98    1
    65    99   100    2
    66    78    77    1
    67    78    79    2
    68    46    45    1
    69    46    47    2
    70    45    48    1
    71    77    80    1
    72    51    52    1
    73    17    18   ar
    74    17    19   ar
    75   107   108    1
    76   108   109    1
    77    52    53    1
    78    48    49    1
    79    48    50    1
    80    18    20   ar
    81    19    21   ar
    82    54    53    2
    83   110   109    1
    84    33    32    2
    85    20    21   ar
    86    34    35    1
    87    34    31    1
    88    32    31    1
    89    35    37   ar
    90    35    36   ar
    91    40    37   ar
    92    40    42   ar
    93    31    30    1
    94    37    39   ar
    95    36    38   ar
    96    42    43   ar
    97    39    38   ar
    98    39    41   ar
    99    43    41   ar
   100    60    59    1
   101    59    56    1
   102    55    56    1
   103    56    57    1
   104    57    58    2
