@<TRIPOS>MOLECULE
tmp/2ch2D02.pdb
 93 89 0 0 0
SMALL
GASTEIGER

@<TRIPOS>ATOM
      1  N          3.2530   27.1260  -13.6180 N.3    22  PRO22      -0.2102
      2  CA         3.1070   26.3190  -14.7930 C.3    22  PRO22       0.1504
      3  C          2.0430   26.9410  -15.7090 C.2    22  PRO22       0.2576
      4  O          1.2600   26.2090  -16.3230 O.2    22  PRO22      -0.2718
      5  CB         2.5880   25.0030  -14.2370 C.3    22  PRO22       0.0282
      6  CG         1.7070   25.4230  -13.0960 C.3    22  PRO22       0.0208
      7  CD         2.3470   26.6990  -12.5360 C.3    22  PRO22       0.0893
      8  N          2.0170   28.2730  -15.8070 N.am   23  GLY23      -0.1943
      9  CA         1.1400   28.9640  -16.7470 C.3    23  GLY23       0.1998
     10  C          0.2670   29.9940  -16.0670 C.2    23  GLY23       0.2480
     11  O         -0.1860   29.7790  -14.9340 O.2    23  GLY23      -0.2729
     12  N          0.0080   31.1210  -16.7530 N.am   24  PRO24      -0.2726
     13  CA         0.5920   31.4730  -18.0480 C.3    24  PRO24       0.1402
     14  C          2.0200   31.9870  -17.8740 C.2    24  PRO24       0.2269
     15  O          2.3430   32.5150  -16.8150 O.2    24  PRO24      -0.2865
     16  CB        -0.3240   32.6020  -18.5340 C.3    24  PRO24       0.0296
     17  CG        -0.7990   33.2380  -17.2980 C.3    24  PRO24       0.0237
     18  CD        -0.9620   32.1390  -16.2950 C.3    24  PRO24       0.0939
     19  N         -6.5240   17.0180  -15.9720 N.3   102  TRP102     -0.1241
     20  CA        -6.9620   17.2430  -17.3520 C.3   102  TRP102      0.1605
     21  C         -7.8070   16.0910  -17.8630 C.2   102  TRP102      0.2264
     22  O         -8.9210   16.3140  -18.3960 O.2   102  TRP102     -0.2867
     23  CB        -5.7510   17.5290  -18.2410 C.3   102  TRP102      0.0550
     24  CG        -4.8820   18.6330  -17.6190 C.ar  102  TRP102      0.0003
     25  CD1       -3.5540   18.5390  -17.2430 C.ar  102  TRP102      0.0946
     26  CD2       -5.3090   19.9720  -17.2510 C.ar  102  TRP102      0.0152
     27  NE1       -3.1250   19.7470  -16.7090 N.ar  102  TRP102     -0.2442
     28  CE2       -4.1830   20.6300  -16.6820 C.ar  102  TRP102      0.0810
     29  CE3       -6.5410   20.6750  -17.3420 C.ar  102  TRP102      0.0012
     30  CZ2       -4.2500   21.9620  -16.2090 C.ar  102  TRP102      0.0191
     31  CZ3       -6.6090   22.0090  -16.8810 C.ar  102  TRP102      0.0001
     32  CH2       -5.4710   22.6330  -16.3170 C.ar  102  TRP102      0.0015
     33  N          0.3630   19.1500  -16.0420 N.3   152  SER152     -0.1217
     34  CA         0.7940   20.3120  -15.2400 C.3   152  SER152      0.1889
     35  C          0.2160   20.3410  -13.8410 C.2   152  SER152      0.2288
     36  O          0.4260   21.3160  -13.0940 O.2   152  SER152     -0.2866
     37  CB         0.4340   21.6180  -15.9500 C.3   152  SER152      0.2089
     38  OG        -0.9670   21.6890  -16.1830 O.3   152  SER152     -0.2183
     39  N         -0.1110   29.7200  -23.8920 N.3   202  GLN202     -0.1231
     40  CA         0.4620   30.4790  -22.7560 C.3   202  GLN202      0.1698
     41  C          1.3060   29.6320  -21.8630 C.2   202  GLN202      0.2592
     42  O          1.6610   30.0630  -20.7630 O.2   202  GLN202     -0.2718
     43  CB        -0.6250   31.1500  -21.9050 C.3   202  GLN202      0.0381
     44  CG        -1.4140   30.2020  -21.0050 C.3   202  GLN202      0.0905
     45  CD        -2.5410   29.3820  -21.7210 C.2   202  GLN202      0.2608
     46  OE1       -2.5270   29.1810  -22.9410 O.2   202  GLN202     -0.2717
     47  NE2       -3.5150   28.9070  -20.9290 N.am  202  GLN202     -0.0878
     48  N          1.5880   28.4150  -22.3060 N.am  203  LYS203     -0.1980
     49  CA         2.4760   27.5060  -21.5890 C.3   203  LYS203      0.1596
     50  C          3.8890   27.6430  -22.2140 C.2   203  LYS203      0.2287
     51  O          4.5050   28.7240  -22.1640 O.2   203  LYS203     -0.2864
     52  CB         1.9290   26.0530  -21.6520 C.3   203  LYS203      0.0298
     53  CG         1.2140   25.5670  -20.4030 C.3   203  LYS203      0.0038
     54  CD        -0.0740   26.2790  -20.1290 C.3   203  LYS203      0.0206
     55  CE        -0.5970   25.7250  -18.8270 C.3   203  LYS203      0.1093
     56  NZ        -2.0210   25.2890  -18.9950 N.3   203  LYS203     -0.1314
     57  N          6.1520   34.6680   -9.0200 N.3   340  GLU340     -0.1245
     58  CA         4.9770   33.8330   -9.0430 C.3   340  GLU340      0.1567
     59  C          5.3610   32.4380   -8.5640 C.2   340  GLU340      0.2260
     60  O          6.0640   31.6820   -9.2360 O.2   340  GLU340     -0.2867
     61  CB         4.3980   33.7740  -10.4650 C.3   340  GLU340      0.0388
     62  CG         3.3450   32.6800  -10.7020 C.3   340  GLU340      0.1160
     63  CD         2.0010   32.9800   -9.9950 C.2   340  GLU340      0.3649
     64  OE1        0.9690   32.3630  -10.3710 O.co2 340  GLU340     -0.2457
     65  OE2        1.9680   33.8400   -9.0680 O.co2 340  GLU340     -0.2457
     66  N          3.4220   29.2370   -7.7050 N.3   342  GLN342     -0.1245
     67  CA         2.0500   28.7500   -7.8700 C.3   342  GLN342      0.1566
     68  C          1.7200   27.6380   -6.8910 C.2   342  GLN342      0.2260
     69  O          2.5670   26.7790   -6.6410 O.2   342  GLN342     -0.2867
     70  CB         1.8460   28.2450   -9.3260 C.3   342  GLN342      0.0367
     71  CG         0.4070   27.7570   -9.6580 C.3   342  GLN342      0.0905
     72  CD        -0.6480   28.8200   -9.4360 C.2   342  GLN342      0.2608
     73  OE1       -1.3660   29.1940  -10.3670 O.2   342  GLN342     -0.2717
     74  NE2       -0.7580   29.3090   -8.2090 N.am  342  GLN342     -0.0878
     75  N         -2.7640   21.8190   -7.7640 N.3   345  LEU345     -0.1245
     76  CA        -3.9420   21.6500   -8.5920 C.3   345  LEU345      0.1561
     77  C         -4.1960   20.1590   -8.7390 C.2   345  LEU345      0.2260
     78  O         -3.2580   19.3720   -9.0840 O.2   345  LEU345     -0.2867
     79  CB        -3.7140   22.2340   -9.9870 C.3   345  LEU345      0.0270
     80  CG        -4.7880   22.9850  -10.8060 C.3   345  LEU345      0.0019
     81  CD1       -4.6030   22.6330  -12.2960 C.3   345  LEU345      0.0001
     82  CD2       -6.2600   22.7370  -10.3940 C.3   345  LEU345      0.0001
     83  N          3.9070   24.5940   -7.4700 N.3   354  ARG354     -0.1245
     84  CA         4.3070   24.1850   -8.8440 C.3   354  ARG354      0.1563
     85  C          5.1100   25.2730   -9.5260 C.2   354  ARG354      0.2260
     86  O          4.7540   26.4900   -9.4730 O.2   354  ARG354     -0.2867
     87  CB         3.1170   23.7770   -9.7070 C.3   354  ARG354      0.0307
     88  CG         2.2860   22.6250   -9.1480 C.3   354  ARG354      0.0489
     89  CD         1.0120   22.4760   -9.9550 C.3   354  ARG354      0.2205
     90  NE         0.1240   23.6400   -9.8260 N.pl3 354  ARG354     -0.0865
     91  CZ        -0.6630   24.0420  -10.8250 C.cat 354  ARG354      0.5346
     92  NH1       -0.6630   23.3690  -11.9810 N.pl3 354  ARG354      0.1354
     93  NH2       -1.4540   25.0940  -10.6770 N.pl3 354  ARG354      0.1354
@<TRIPOS>BOND
     1    39    40    1
     2    46    45    2
     3    40    43    1
     4    40    41    1
     5    48    41   am
     6    48    49    1
     7    50    51    2
     8    50    49    1
     9    43    44    1
    10    41    42    2
    11    45    44    1
    12    45    47   am
    13    52    49    1
    14    52    53    1
    15    53    54    1
    16    54    55    1
    17    56    55    1
    18    16    13    1
    19    16    17    1
    20    22    21    2
    21    23    24    1
    22    23    20    1
    23    13    14    1
    24    13    12    1
    25    14    15    2
    26    21    20    1
    27    24    26   ar
    28    24    25   ar
    29    20    19    1
    30    29    26   ar
    31    29    31   ar
    32    17    18    1
    33    26    28   ar
    34    25    27   ar
    35    31    32   ar
    36    12    18    1
    37    12    10   am
    38     9    10    1
    39     9     8    1
    40    27    28   ar
    41    28    30   ar
    42     4     3    2
    43    32    30   ar
    44    38    37    1
    45    10    11    2
    46    33    34    1
    47    37    34    1
    48     8     3   am
    49     3     2    1
    50    34    35    1
    51     2     5    1
    52     2     1    1
    53     5     6    1
    54    35    36    2
    55     1     7    1
    56     6     7    1
    57    81    80    1
    58    92    91    1
    59    91    93    1
    60    91    90    2
    61    80    82    1
    62    80    79    1
    63    62    61    1
    64    62    63    1
    65    61    58    1
    66    64    63   ar
    67    73    72    2
    68    63    65   ar
    69    79    76    1
    70    89    90    1
    71    89    88    1
    72    87    88    1
    73    87    84    1
    74    71    72    1
    75    71    70    1
    76    85    86    2
    77    85    84    1
    78    72    74   am
    79    70    67    1
    80    60    59    2
    81    78    77    2
    82    58    57    1
    83    58    59    1
    84    84    83    1
    85    77    76    1
    86    76    75    1
    87    67    66    1
    88    67    68    1
    89    68    69    2
