@<TRIPOS>MOLECULE
tmp/2ch4A00.pdb
 172 161 0 0 0
SMALL
GASTEIGER

@<TRIPOS>ATOM
      1  N         23.4490   48.4680    0.2150 N.3    54  HIS54      -0.1241
      2  CA        23.5040   48.6390    1.6560 C.3    54  HIS54       0.1621
      3  C         24.7940   47.9900    2.1880 C.2    54  HIS54       0.2264
      4  O         25.6550   48.6860    2.7290 O.2    54  HIS54      -0.2867
      5  CB        22.2850   48.0000    2.3000 C.3    54  HIS54       0.0745
      6  CG        22.1230   48.3420    3.7430 C.ar   54  HIS54       0.0817
      7  ND1       22.2630   47.4120    4.7490 N.ar   54  HIS54      -0.2268
      8  CD2       21.8210   49.5160    4.3550 C.ar   54  HIS54       0.1154
      9  CE1       22.0530   47.9930    5.9170 C.ar   54  HIS54       0.1986
     10  NE2       21.7840   49.2710    5.7020 N.ar   54  HIS54      -0.2212
     11  N         27.7820   49.5910    1.4190 N.3    57  ARG57      -0.1231
     12  CA        27.9610   50.7680    2.2460 C.3    57  ARG57       0.1694
     13  C         28.6130   50.4290    3.5830 C.2    57  ARG57       0.2592
     14  O         29.7090   50.9010    3.8730 O.2    57  ARG57      -0.2718
     15  CB        26.6220   51.4710    2.4830 C.3    57  ARG57       0.0321
     16  CG        26.1920   52.4030    1.3550 C.3    57  ARG57       0.0489
     17  CD        25.3250   53.5780    1.8660 C.3    57  ARG57       0.2205
     18  NE        23.9700   53.1840    2.2630 N.pl3  57  ARG57      -0.0865
     19  CZ        23.0390   52.7110    1.4290 C.cat  57  ARG57       0.5346
     20  NH1       23.3060   52.5600    0.1330 N.pl3  57  ARG57       0.1354
     21  NH2       21.8330   52.3840    1.8880 N.pl3  57  ARG57       0.1354
     22  N         27.9540   49.6010    4.3850 N.am   58  ASN58      -0.1960
     23  CA        28.4880   49.2480    5.6840 C.3    58  ASN58       0.1819
     24  C         29.9680   49.0510    5.6480 C.2    58  ASN58       0.2621
     25  O         30.7000   49.6980    6.3790 O.2    58  ASN58      -0.2715
     26  CB        27.8460   47.9870    6.2130 C.3    58  ASN58       0.1195
     27  CG        26.4400   48.2150    6.6970 C.2    58  ASN58       0.2630
     28  OD1       25.8350   47.3260    7.2840 O.2    58  ASN58      -0.2716
     29  ND2       25.9080   49.4070    6.4550 N.am   58  ASN58      -0.0877
     30  N         30.4190   48.1540    4.7940 N.am   59  ALA59      -0.1977
     31  CA        31.8450   47.9040    4.6990 C.3    59  ALA59       0.1597
     32  C         32.6120   49.2140    4.6910 C.2    59  ALA59       0.2287
     33  O         33.4690   49.4540    5.5340 O.2    59  ALA59      -0.2864
     34  CB        32.1460   47.1340    3.4450 C.3    59  ALA59       0.0319
     35  N         31.4960   52.1550    5.3570 N.3    61  ASP61      -0.1225
     36  CA        31.1600   53.0110    6.4770 C.3    61  ASP61       0.1805
     37  C         31.7980   52.5140    7.7550 C.2    61  ASP61       0.2598
     38  O         32.7020   53.1580    8.2840 O.2    61  ASP61      -0.2718
     39  CB        29.6450   53.1070    6.6490 C.3    61  ASP61       0.1424
     40  CG        29.2480   54.1230    7.7050 C.2    61  ASP61       0.3668
     41  OD1       29.8010   55.2450    7.6680 O.co2  61  ASP61      -0.2456
     42  OD2       28.3900   53.8090    8.5620 O.co2  61  ASP61      -0.2456
     43  N         31.3400   51.3660    8.2440 N.am   62  HIS62      -0.1961
     44  CA        31.8710   50.7910    9.4750 C.3    62  HIS62       0.1787
     45  C         33.0950   49.9020    9.2640 C.2    62  HIS62       0.2620
     46  O         34.1130   50.0790    9.9150 O.2    62  HIS62      -0.2715
     47  CB        30.7970   49.9740   10.1780 C.3    62  HIS62       0.0785
     48  CG        29.4920   50.6870   10.3240 C.ar   62  HIS62       0.0821
     49  ND1       29.4010   51.9770   10.8030 N.ar   62  HIS62      -0.2267
     50  CD2       28.2250   50.2770   10.0990 C.ar   62  HIS62       0.1154
     51  CE1       28.1300   52.3260   10.8660 C.ar   62  HIS62       0.1986
     52  NE2       27.3940   51.3140   10.4480 N.ar   62  HIS62      -0.2212
     53  N         32.9870   48.9390    8.3620 N.am   63  GLY63      -0.1954
     54  CA        34.0970   48.0420    8.1120 C.3    63  GLY63       0.1869
     55  C         35.4400   48.7180    7.9520 C.2    63  GLY63       0.2309
     56  O         36.1300   48.9600    8.9300 O.2    63  GLY63      -0.2863
     57  N         35.2890   42.5110    3.0710 N.3    98  ASP98      -0.1239
     58  CA        36.1940   43.6080    3.3970 C.3    98  ASP98       0.1674
     59  C         37.0310   43.2010    4.6000 C.2    98  ASP98       0.2266
     60  O         36.6990   42.2410    5.3060 O.2    98  ASP98      -0.2867
     61  CB        35.3890   44.8480    3.7810 C.3    98  ASP98       0.1410
     62  CG        34.6850   44.6850    5.1320 C.2    98  ASP98       0.3668
     63  OD1       35.3710   44.8250    6.1650 O.co2  98  ASP98      -0.2456
     64  OD2       33.4630   44.3960    5.1600 O.co2  98  ASP98      -0.2456
     65  N         37.1480   46.7550   10.7660 N.3   101  ARG101     -0.1231
     66  CA        37.0890   46.5580   12.1970 C.3   101  ARG101      0.1694
     67  C         36.3470   45.3150   12.6400 C.2   101  ARG101      0.2593
     68  O         36.1190   45.1300   13.8290 O.2   101  ARG101     -0.2718
     69  CB        36.4840   47.7940   12.8710 C.3   101  ARG101      0.0321
     70  CG        35.0200   48.0690   12.5440 C.3   101  ARG101      0.0489
     71  CD        34.5260   49.3590   13.2150 C.3   101  ARG101      0.2205
     72  NE        35.0030   50.5740   12.5470 N.pl3 101  ARG101     -0.0865
     73  CZ        36.2520   51.0330   12.5820 C.cat 101  ARG101      0.5346
     74  NH1       37.1920   50.3950   13.2630 N.pl3 101  ARG101      0.1354
     75  NH2       36.5630   52.1440   11.9280 N.pl3 101  ARG101      0.1354
     76  N         35.9630   44.4660   11.7040 N.am  102  GLY102     -0.1942
     77  CA        35.2670   43.2440   12.0840 C.3   102  GLY102      0.2014
     78  C         33.8890   43.4020   12.7100 C.2   102  GLY102      0.2638
     79  O         33.2780   44.4630   12.6330 O.2   102  GLY102     -0.2714
     80  N         33.3950   42.3500   13.3530 N.am  103  ILE103     -0.1977
     81  CA        32.0700   42.4210   13.9440 C.3   103  ILE103      0.1596
     82  C         31.9900   42.1520   15.4430 C.2   103  ILE103      0.2287
     83  O         30.9280   42.3210   16.0360 O.2   103  ILE103     -0.2864
     84  CB        31.1280   41.4420   13.2580 C.3   103  ILE103      0.0276
     85  CG1       29.7330   42.0460   13.1700 C.3   103  ILE103      0.0022
     86  CG2       31.1240   40.1200   14.0060 C.3   103  ILE103      0.0022
     87  CD1       29.6840   43.2140   12.2200 C.3   103  ILE103      0.0001
     88  N         22.2500   40.4350   14.3740 N.3   135  LEU135     -0.1245
     89  CA        22.4300   41.6310   13.5770 C.3   135  LEU135      0.1561
     90  C         21.2040   41.8870   12.7000 C.2   135  LEU135      0.2260
     91  O         20.9510   43.0230   12.3100 O.2   135  LEU135     -0.2867
     92  CB        23.6900   41.4860   12.7210 C.3   135  LEU135      0.0270
     93  CG        24.7760   42.5470   12.9050 C.3   135  LEU135      0.0019
     94  CD1       25.0470   42.7410   14.3580 C.3   135  LEU135      0.0001
     95  CD2       26.0430   42.1300   12.1990 C.3   135  LEU135      0.0001
     96  N         19.6140   47.3570   16.4110 N.3   141  SER141     -0.1217
     97  CA        20.6190   48.3800   16.1890 C.3   141  SER141      0.1889
     98  C         20.0640   49.7490   16.5710 C.2   141  SER141      0.2288
     99  O         20.3500   50.7560   15.9180 O.2   141  SER141     -0.2866
    100  CB        21.0660   48.3570   14.7310 C.3   141  SER141      0.2089
    101  OG        21.6430   47.1000   14.4200 O.3   141  SER141     -0.2183
    102  N         19.6210   52.7870   16.9050 N.3   143  LYS143     -0.1245
    103  CA        19.5620   53.9310   16.0130 C.3   143  LYS143      0.1561
    104  C         18.4710   54.8940   16.4540 C.2   143  LYS143      0.2260
    105  O         18.6410   55.6400   17.4200 O.2   143  LYS143     -0.2867
    106  CB        19.3150   53.4360   14.5620 C.3   143  LYS143      0.0271
    107  CG        20.5260   53.5260   13.6550 C.3   143  LYS143      0.0035
    108  CD        20.8080   54.9680   13.2440 C.3   143  LYS143      0.0206
    109  CE        19.6920   55.5200   12.3620 C.3   143  LYS143      0.1093
    110  NZ        20.0010   56.8670   11.7940 N.3   143  LYS143     -0.1314
    111  N         17.0050   58.0750   10.0010 N.3   147  SER147     -0.1217
    112  CA        17.6880   57.9090    8.7250 C.3   147  SER147      0.1889
    113  C         16.8160   57.0700    7.8080 C.2   147  SER147      0.2288
    114  O         16.8020   57.2510    6.5890 O.2   147  SER147     -0.2866
    115  CB        19.0800   57.2220    8.8440 C.3   147  SER147      0.2089
    116  OG        19.7850   57.1700    7.6260 O.3   147  SER147     -0.2183
    117  N         18.0590   58.5310    3.9610 N.3   152  ARG152     -0.1231
    118  CA        19.0590   57.7120    3.2580 C.3   152  ARG152      0.1694
    119  C         19.1940   56.2010    3.5740 C.2   152  ARG152      0.2593
    120  O         20.2900   55.6430    3.4630 O.2   152  ARG152     -0.2718
    121  CB        20.4440   58.3770    3.3870 C.3   152  ARG152      0.0321
    122  CG        21.0760   58.2730    4.7710 C.3   152  ARG152      0.0489
    123  CD        21.4010   59.6390    5.4050 C.3   152  ARG152      0.2205
    124  NE        22.7150   60.1730    5.0310 N.pl3 152  ARG152     -0.0865
    125  CZ        23.3160   61.1990    5.6390 C.cat 152  ARG152      0.5346
    126  NH1       24.5110   61.6140    5.2300 N.pl3 152  ARG152      0.1354
    127  NH2       22.7280   61.8090    6.6620 N.pl3 152  ARG152      0.1354
    128  N         18.0930   55.5470    3.9540 N.am  153  GLY153     -0.1942
    129  CA        18.1010   54.1100    4.2370 C.3   153  GLY153      0.2014
    130  C         18.9140   53.5280    5.3940 C.2   153  GLY153      0.2639
    131  O         20.0750   53.8930    5.5800 O.2   153  GLY153     -0.2714
    132  N         18.3040   52.6020    6.1490 N.am  154  VAL154     -0.1963
    133  CA        18.9440   51.9320    7.3010 C.3   154  VAL154      0.1727
    134  C         18.2620   50.6080    7.7270 C.2   154  VAL154      0.2617
    135  O         17.0300   50.5270    7.7770 O.2   154  VAL154     -0.2715
    136  CB        18.9900   52.8710    8.5550 C.3   154  VAL154      0.0290
    137  CG1       19.3230   52.0610    9.8100 C.3   154  VAL154      0.0023
    138  CG2       20.0390   53.9670    8.3690 C.3   154  VAL154      0.0023
    139  N         19.0760   49.5890    8.0400 N.am  155  GLY155     -0.1940
    140  CA        18.5640   48.2900    8.4840 C.3   155  GLY155      0.2014
    141  C         18.9500   47.0350    7.6930 C.2   155  GLY155      0.2638
    142  O         18.9330   47.0530    6.4650 O.2   155  GLY155     -0.2714
    143  N         19.3070   45.9450    8.3740 N.am  156  MET156     -0.1976
    144  CA        19.6500   44.7020    7.6730 C.3   156  MET156      0.1605
    145  C         18.4610   43.8000    7.7050 C.2   156  MET156      0.2287
    146  O         18.2230   43.0400    6.7700 O.2   156  MET156     -0.2864
    147  CB        20.7600   43.9130    8.3480 C.3   156  MET156      0.0413
    148  CG        22.0300   44.6220    8.5110 C.3   156  MET156      0.0598
    149  SD        23.4140   43.6970    7.9230 S.3   156  MET156     -0.1393
    150  CE        24.2200   44.9130    6.9040 C.3   156  MET156      0.0692
    151  N         26.6000   35.9200    7.7630 N.3   172  ILE172     -0.1245
    152  CA        27.6570   36.8900    7.9950 C.3   172  ILE172      0.1561
    153  C         28.8140   36.0650    8.5100 C.2   172  ILE172      0.2260
    154  O         28.6090   35.1030    9.2420 O.2   172  ILE172     -0.2867
    155  CB        27.3210   37.9110    9.0940 C.3   172  ILE172      0.0252
    156  CG1       25.8340   38.2550    9.0930 C.3   172  ILE172      0.0019
    157  CG2       28.1250   39.1820    8.8570 C.3   172  ILE172      0.0019
    158  CD1       25.4460   39.3700    8.1480 C.3   172  ILE172      0.0001
    159  N         34.8600   41.6680    7.4710 N.3   180  THR180     -0.1218
    160  CA        33.6250   40.8940    7.4750 C.3   180  THR180      0.1862
    161  C         33.3300   40.4700    6.0620 C.2   180  THR180      0.2287
    162  O         33.8940   41.0150    5.1200 O.2   180  THR180     -0.2866
    163  CB        32.4360   41.7240    7.9550 C.3   180  THR180      0.1770
    164  OG1       32.7330   42.2870    9.2330 O.3   180  THR180     -0.2211
    165  CG2       31.2030   40.8550    8.0770 C.3   180  THR180      0.0375
    166  N         29.6810   39.2270    4.0180 N.3   182  VAL182     -0.1245
    167  CA        28.2960   38.7650    4.0090 C.3   182  VAL182      0.1561
    168  C         28.1000   37.8830    2.7820 C.2   182  VAL182      0.2260
    169  O         28.6780   38.1550    1.7200 O.2   182  VAL182     -0.2867
    170  CB        27.3050   39.9260    3.9600 C.3   182  VAL182      0.0252
    171  CG1       25.9190   39.4200    4.2720 C.3   182  VAL182      0.0019
    172  CG2       27.6970   40.9840    4.9410 C.3   182  VAL182      0.0019
@<TRIPOS>BOND
     1    20    19    1
     2     1     2    1
     3    16    17    1
     4    16    15    1
     5    11    12    1
     6    19    21    1
     7    19    18    2
     8     2     3    1
     9     2     5    1
    10   169   168    2
    11    17    18    1
    12     3     4    2
    13    12    15    1
    14    12    13    1
    15     5     6    1
    16   168   167    1
    17    57    58    1
    18   118   121    1
    19   118   119    1
    20   118   117    1
    21   121   122    1
    22    58    61    1
    23    58    59    1
    24    34    31    1
    25   120   119    2
    26   119   128   am
    27    13    14    2
    28    13    22   am
    29     6     8   ar
    30     6     7   ar
    31    61    62    1
    32   128   129    1
    33   170   167    1
    34   170   171    1
    35   170   172    1
    36   167   166    1
    37   129   130    1
    38     8    10   ar
    39    22    23    1
    40    59    60    2
    41    32    31    1
    42    32    33    2
    43    31    30    1
    44     7     9   ar
    45   122   123    1
    46    30    24   am
    47   124   123    1
    48   124   125    2
    49   162   161    2
    50    62    64   ar
    51    62    63   ar
    52   126   125    1
    53    35    36    1
    54   130   131    2
    55   130   132   am
    56   125   127    1
    57    24    23    1
    58    24    25    2
    59    23    26    1
    60    10     9   ar
    61   161   160    1
    62   132   133    1
    63    26    27    1
    64    29    27   am
    65   142   141    2
    66    36    39    1
    67    36    37    1
    68   114   113    2
    69    39    40    1
    70    27    28    2
    71   146   145    2
    72   150   149    1
    73   133   134    1
    74   133   136    1
    75   159   160    1
    76   160   163    1
    77   116   115    1
    78    41    40   ar
    79   144   145    1
    80   144   147    1
    81   144   143    1
    82   141   143   am
    83   141   140    1
    84    40    42   ar
    85   134   135    2
    86   134   139   am
    87    37    43   am
    88    37    38    2
    89   151   152    1
    90   113   112    1
    91   149   148    1
    92    55    54    1
    93    55    56    2
    94   163   165    1
    95   163   164    1
    96   152   153    1
    97   152   155    1
    98   139   140    1
    99    54    53    1
   100   158   156    1
   101    43    44    1
   102   147   148    1
   103    53    45   am
   104   138   136    1
   105   153   154    2
   106   136   137    1
   107   112   115    1
   108   112   111    1
   109   157   155    1
   110   156   155    1
   111    45    44    1
   112    45    46    2
   113    44    47    1
   114    50    48   ar
   115    50    52   ar
   116    47    48    1
   117    48    49   ar
   118    52    51   ar
   119    65    66    1
   120    49    51   ar
   121    76    77    1
   122    76    67   am
   123   110   109    1
   124    75    73    1
   125    77    78    1
   126    66    67    1
   127    66    69    1
   128    95    93    1
   129    87    85    1
   130    91    90    2
   131   109   108    1
   132    70    69    1
   133    70    71    1
   134    72    73    2
   135    72    71    1
   136    73    74    1
   137    79    78    2
   138    67    68    2
   139    90    89    1
   140    78    80   am
   141    92    93    1
   142    92    89    1
   143    93    94    1
   144    85    84    1
   145   108   107    1
   146    84    81    1
   147    84    86    1
   148    80    81    1
   149    89    88    1
   150   107   106    1
   151    81    82    1
   152   101   100    1
   153   106   103    1
   154   100    97    1
   155    82    83    2
   156    99    98    2
   157   103   104    1
   158   103   102    1
   159    97    96    1
   160    97    98    1
   161   104   105    2
