@<TRIPOS>MOLECULE
tmp/2ch5A00.pdb
 132 126 0 0 0
SMALL
GASTEIGER

@<TRIPOS>ATOM
      1  N         47.7170   81.0320   88.3780 N.3    14  GLY14      -0.1210
      2  CA        48.1730   82.3980   88.1180 C.3    14  GLY14       0.1956
      3  C         49.6920   82.5040   87.9550 C.2    14  GLY14       0.2612
      4  O         50.4280   81.7350   88.5680 O.2    14  GLY14      -0.2717
      5  N         50.1660   83.4320   87.1160 N.am   15  GLY15      -0.1956
      6  CA        51.6050   83.8410   87.1580 C.3    15  GLY15       0.1869
      7  C         52.6880   82.9870   86.4760 C.2    15  GLY15       0.2309
      8  O         52.4920   82.5020   85.3700 O.2    15  GLY15      -0.2863
      9  N         47.8760   80.6010   81.9230 N.3    39  ASN39      -0.1240
     10  CA        47.2150   81.8330   81.5090 C.3    39  ASN39       0.1653
     11  C         46.8150   81.8090   80.0280 C.2    39  ASN39       0.2266
     12  O         47.6440   82.0130   79.1600 O.2    39  ASN39      -0.2867
     13  CB        48.1090   83.0610   81.7640 C.3    39  ASN39       0.1155
     14  CG        47.3280   84.3930   81.6200 C.2    39  ASN39       0.2627
     15  OD1       46.3110   84.4490   80.9250 O.2    39  ASN39      -0.2716
     16  ND2       47.7920   85.4550   82.2980 N.am   39  ASN39      -0.0877
     17  N         45.2060   83.8420   78.1990 N.3    41  TRP41      -0.1227
     18  CA        45.3920   85.0730   77.4630 C.3    41  TRP41       0.1737
     19  C         46.7550   85.0550   76.7810 C.2    41  TRP41       0.2595
     20  O         46.9090   85.5770   75.6910 O.2    41  TRP41      -0.2718
     21  CB        45.3310   86.3010   78.4010 C.3    41  TRP41       0.0564
     22  CG        44.0930   86.5150   79.1370 C.ar   41  TRP41       0.0003
     23  CD1       43.9580   86.4940   80.4800 C.ar   41  TRP41       0.0946
     24  CD2       42.7950   86.9050   78.6090 C.ar   41  TRP41       0.0152
     25  NE1       42.6760   86.8330   80.8260 N.ar   41  TRP41      -0.2442
     26  CE2       41.9350   87.0590   79.7050 C.ar   41  TRP41       0.0810
     27  CE3       42.2890   87.1090   77.3250 C.ar   41  TRP41       0.0012
     28  CZ2       40.5800   87.4400   79.5700 C.ar   41  TRP41       0.0191
     29  CZ3       40.9300   87.4770   77.1850 C.ar   41  TRP41       0.0001
     30  CH2       40.0990   87.6070   78.3000 C.ar   41  TRP41       0.0015
     31  N         47.7400   84.4460   77.4410 N.am   42  LEU42      -0.1980
     32  CA        49.1240   84.4030   76.9320 C.3    42  LEU42       0.1596
     33  C         49.4630   83.1700   76.1080 C.2    42  LEU42       0.2287
     34  O         50.2020   83.2770   75.1240 O.2    42  LEU42      -0.2864
     35  CB        50.1100   84.5300   78.0930 C.3    42  LEU42       0.0297
     36  CG        50.0090   85.8990   78.7970 C.3    42  LEU42       0.0022
     37  CD1       50.9460   85.9640   79.9670 C.3    42  LEU42       0.0001
     38  CD2       50.3100   87.0250   77.8520 C.3    42  LEU42       0.0001
     39  N         44.1930   82.4180   85.9440 N.3    79  SER79      -0.1202
     40  CA        44.1740   83.7950   85.4260 C.3    79  SER79       0.2020
     41  C         43.2110   83.8120   84.2480 C.2    79  SER79       0.2619
     42  O         43.2690   82.9320   83.4000 O.2    79  SER79      -0.2717
     43  CB        45.5630   84.2150   84.9150 C.3    79  SER79       0.2103
     44  OG        46.4990   84.3000   85.9630 O.3    79  SER79      -0.2182
     45  N         42.3180   84.7960   84.1980 N.am   80  GLY80      -0.1956
     46  CA        41.3370   84.8800   83.1120 C.3    80  GLY80       0.1869
     47  C         40.2220   83.8370   83.1430 C.2    80  GLY80       0.2309
     48  O         39.4500   83.7090   82.1630 O.2    80  GLY80      -0.2863
     49  N         41.9570   82.7850   89.5390 N.3   110  ASP110     -0.1239
     50  CA        43.0400   82.7000   90.4980 C.3   110  ASP110      0.1674
     51  C         42.6890   83.3800   91.8220 C.2   110  ASP110      0.2266
     52  O         42.8810   82.8010   92.8790 O.2   110  ASP110     -0.2867
     53  CB        44.3660   83.2640   89.9000 C.3   110  ASP110      0.1410
     54  CG        44.2300   84.6640   89.2770 C.2   110  ASP110      0.3668
     55  OD1       43.1320   85.2860   89.2260 O.co2 110  ASP110     -0.2456
     56  OD2       45.2800   85.1600   88.8290 O.co2 110  ASP110     -0.2456
     57  N         46.9040   90.5600   94.5450 N.3   127  ILE127     -0.1245
     58  CA        47.9280   89.7200   93.9230 C.3   127  ILE127      0.1561
     59  C         49.0330   90.5710   93.3330 C.2   127  ILE127      0.2260
     60  O         48.7530   91.4950   92.5790 O.2   127  ILE127     -0.2867
     61  CB        47.3210   88.8370   92.7930 C.3   127  ILE127      0.0252
     62  CG1       46.1960   87.9890   93.3550 C.3   127  ILE127      0.0019
     63  CG2       48.4060   87.9670   92.1180 C.3   127  ILE127      0.0019
     64  CD1       45.4240   87.2060   92.3050 C.3   127  ILE127      0.0001
     65  N         52.5420   89.3040   91.5270 N.3   129  GLY129     -0.1210
     66  CA        53.5900   88.3660   91.0710 C.3   129  GLY129      0.1956
     67  C         54.0930   88.9170   89.7370 C.2   129  GLY129      0.2613
     68  O         54.4480   90.1030   89.6470 O.2   129  GLY129     -0.2717
     69  N         54.0940   88.0990   88.6990 N.am  130  THR130     -0.1938
     70  CA        54.4000   88.6200   87.3410 C.3   130  THR130      0.2028
     71  C         53.3580   89.6630   86.9320 C.2   130  THR130      0.2643
     72  O         53.7130   90.6520   86.3100 O.2   130  THR130     -0.2714
     73  CB        54.4720   87.5260   86.2700 C.3   130  THR130      0.1808
     74  OG1       53.2670   86.7930   86.2860 O.3   130  THR130     -0.2208
     75  CG2       55.6180   86.5870   86.5540 C.3   130  THR130      0.0379
     76  N         52.1010   89.4490   87.3400 N.am  131  GLY131     -0.1939
     77  CA        51.0330   90.4500   87.2620 C.3   131  GLY131      0.2014
     78  C         50.4280   90.8720   88.6010 C.2   131  GLY131      0.2640
     79  O         50.8840   90.4300   89.6980 O.2   131  GLY131     -0.2714
     80  N         49.4710   91.8100   88.5240 N.am  132  SER132     -0.1935
     81  CA        48.7520   92.2770   89.6690 C.3   132  SER132      0.2055
     82  C         47.2480   92.2760   89.4390 C.2   132  SER132      0.2643
     83  O         46.7640   92.3130   88.3060 O.2   132  SER132     -0.2714
     84  CB        49.2330   93.6720   90.0830 C.3   132  SER132      0.2130
     85  OG        48.9620   94.6640   89.1050 O.3   132  SER132     -0.2179
     86  N         46.5170   92.2120   90.5290 N.am  133  ASN133     -0.1971
     87  CA        45.0440   92.1310   90.5080 C.3   133  ASN133      0.1688
     88  C         44.5310   92.3690   91.9190 C.2   133  ASN133      0.2292
     89  O         45.1330   91.8800   92.8700 O.2   133  ASN133     -0.2864
     90  CB        44.6100   90.7340   90.0300 C.3   133  ASN133      0.1181
     91  CG        43.1540   90.6810   89.5500 C.2   133  ASN133      0.2629
     92  OD1       42.4060   91.6600   89.6290 O.2   133  ASN133     -0.2716
     93  ND2       42.7690   89.5410   89.0390 N.am  133  ASN133     -0.0877
     94  N         44.1250   93.7220   87.2680 N.3   148  GLY148     -0.1210
     95  CA        43.9670   92.4060   86.6580 C.3   148  GLY148      0.1956
     96  C         43.8820   92.4470   85.1450 C.2   148  GLY148      0.2612
     97  O         43.4700   91.4590   84.5130 O.2   148  GLY148     -0.2717
     98  N         44.3000   93.5570   84.5390 N.am  149  TRP149     -0.1962
     99  CA        44.1710   93.7150   83.0650 C.3   149  TRP149      0.1771
    100  C         45.3660   93.2570   82.2040 C.2   149  TRP149      0.2620
    101  O         45.2920   93.3050   80.9660 O.2   149  TRP149     -0.2715
    102  CB        43.8610   95.1710   82.7370 C.3   149  TRP149      0.0590
    103  CG        42.6600   95.6570   83.4190 C.ar  149  TRP149      0.0006
    104  CD1       42.5820   96.7260   84.2850 C.ar  149  TRP149      0.0946
    105  CD2       41.3300   95.1150   83.3290 C.ar  149  TRP149      0.0152
    106  NE1       41.2840   96.8790   84.7130 N.ar  149  TRP149     -0.2442
    107  CE2       40.5000   95.9080   84.1430 C.ar  149  TRP149      0.0810
    108  CE3       40.7510   94.0540   82.6050 C.ar  149  TRP149      0.0012
    109  CZ2       39.1150   95.6710   84.2680 C.ar  149  TRP149      0.0191
    110  CZ3       39.3680   93.8150   82.7440 C.ar  149  TRP149      0.0001
    111  CH2       38.5770   94.6260   83.5550 C.ar  149  TRP149      0.0015
    112  N         46.4420   92.8050   82.8350 N.am  150  GLY150     -0.1954
    113  CA        47.5620   92.2400   82.1000 C.3   150  GLY150      0.1869
    114  C         48.5740   93.2600   81.6720 C.2   150  GLY150      0.2309
    115  O         48.3670   94.4590   81.8360 O.2   150  GLY150     -0.2863
    116  N         48.6420   95.9690   85.1400 N.3   155  ASP155     -0.1239
    117  CA        49.5850   95.2250   86.0000 C.3   155  ASP155      0.1674
    118  C         50.4590   96.1320   86.8750 C.2   155  ASP155      0.2266
    119  O         51.5700   95.7750   87.2500 O.2   155  ASP155     -0.2867
    120  CB        50.4680   94.2560   85.2010 C.3   155  ASP155      0.1410
    121  CG        49.7980   92.9010   84.9700 C.2   155  ASP155      0.3668
    122  OD1       48.7700   92.5920   85.6480 O.co2 155  ASP155     -0.2456
    123  OD2       50.2940   92.1580   84.0870 O.co2 155  ASP155     -0.2456
    124  N         56.7140   86.8760   79.2380 N.3   213  LYS213     -0.1245
    125  CA        56.4430   87.7310   80.3600 C.3   213  LYS213      0.1561
    126  C         57.2420   87.3550   81.6140 C.2   213  LYS213      0.2260
    127  O         57.6430   88.2270   82.3630 O.2   213  LYS213     -0.2867
    128  CB        54.9330   87.7460   80.6700 C.3   213  LYS213      0.0271
    129  CG        54.5290   88.6900   81.8010 C.3   213  LYS213      0.0035
    130  CD        52.9820   88.6930   82.0280 C.3   213  LYS213      0.0206
    131  CE        52.5700   89.7660   83.0130 C.3   213  LYS213      0.1093
    132  NZ        51.0740   89.6840   83.3230 N.3   213  LYS213     -0.1314
@<TRIPOS>BOND
     1    34    33    2
     2    20    19    2
     3    33    32    1
     4    19    31   am
     5    19    18    1
     6    32    31    1
     7    32    35    1
     8    29    27   ar
     9    29    30   ar
    10    27    24   ar
    11    18    17    1
    12    18    21    1
    13    38    36    1
    14    35    36    1
    15    30    28   ar
    16    21    22    1
    17    24    22   ar
    18    24    26   ar
    19    36    37    1
    20    22    23   ar
    21    12    11    2
    22   124   125    1
    23    28    26   ar
    24    26    25   ar
    25    11    10    1
    26   125   128    1
    27   125   126    1
    28    23    25   ar
    29   128   129    1
    30    15    14    2
    31   101   100    2
    32    10    13    1
    33    10     9    1
    34   126   127    2
    35    14    13    1
    36    14    16   am
    37   114   115    2
    38   114   113    1
    39   129   130    1
    40   130   131    1
    41   113   112    1
    42    48    47    2
    43   100   112   am
    44   100    99    1
    45   108   110   ar
    46   108   105   ar
    47   102    99    1
    48   102   103    1
    49   110   111   ar
    50   131   132    1
    51    99    98    1
    52    46    47    1
    53    46    45    1
    54   105   103   ar
    55   105   107   ar
    56    42    41    2
    57   103   104   ar
    58   111   109   ar
    59   123   121   ar
    60   107   109   ar
    61   107   106   ar
    62    45    41   am
    63    41    40    1
    64   104   106   ar
    65    97    96    2
    66    98    96   am
    67    43    40    1
    68    43    44    1
    69   121   120    1
    70   121   122   ar
    71   116   117    1
    72    96    95    1
    73   120   117    1
    74     8     7    2
    75    40    39    1
    76   117   118    1
    77    73    74    1
    78    73    75    1
    79    73    70    1
    80    72    71    2
    81     7     6    1
    82    95    94    1
    83   118   119    2
    84    71    76   am
    85    71    70    1
    86     5     6    1
    87     5     3   am
    88    77    76    1
    89    77    78    1
    90    70    69    1
    91     3     2    1
    92     3     4    2
    93     2     1    1
    94    83    82    2
    95    80    78   am
    96    80    81    1
    97    78    79    2
    98    69    67   am
    99    56    54   ar
   100    93    91   am
   101    85    84    1
   102    55    54   ar
   103    54    53    1
   104    82    81    1
   105    82    86   am
   106    49    50    1
   107    91    92    2
   108    91    90    1
   109    68    67    2
   110    81    84    1
   111    67    66    1
   112    53    50    1
   113    90    87    1
   114    50    51    1
   115    87    86    1
   116    87    88    1
   117    66    65    1
   118    51    52    2
   119    88    89    2
   120    63    61    1
   121    64    62    1
   122    60    59    2
   123    61    62    1
   124    61    58    1
   125    59    58    1
   126    58    57    1
