@<TRIPOS>MOLECULE
tmp/2ch6A00.pdb
 130 120 0 0 0
SMALL
GASTEIGER

@<TRIPOS>ATOM
      1  N         43.8380   90.7480   68.5840 N.3    11  GLY11      -0.1210
      2  CA        44.3410   89.7710   67.5970 C.3    11  GLY11       0.1956
      3  C         43.8280   90.0570   66.1970 C.2    11  GLY11       0.2613
      4  O         43.7610   91.2120   65.7970 O.2    11  GLY11      -0.2717
      5  N         43.4540   89.0240   65.4450 N.am   12  THR12      -0.1938
      6  CA        42.8630   89.2760   64.1150 C.3    12  THR12       0.2028
      7  C         41.3560   89.6080   64.1610 C.2    12  THR12       0.2642
      8  O         40.9280   90.5450   63.5030 O.2    12  THR12      -0.2714
      9  CB        43.1890   88.1920   63.0040 C.3    12  THR12       0.1808
     10  OG1       42.1630   87.1970   62.9490 O.3    12  THR12      -0.2208
     11  CG2       44.5380   87.5370   63.2130 C.3    12  THR12       0.0379
     12  N         40.5670   88.8460   64.9230 N.am   13  ARG13      -0.1977
     13  CA        39.1280   89.1290   65.0870 C.3    13  ARG13       0.1597
     14  C         38.9020   90.3400   65.9970 C.2    13  ARG13       0.2287
     15  O         39.5590   90.4670   67.0400 O.2    13  ARG13      -0.2864
     16  CB        38.3720   87.9200   65.6920 C.3    13  ARG13       0.0334
     17  CG        38.1280   86.6930   64.7730 C.3    13  ARG13       0.0492
     18  CD        37.0640   86.9470   63.6690 C.3    13  ARG13       0.2205
     19  NE        35.7850   87.4530   64.2070 N.pl3  13  ARG13      -0.0865
     20  CZ        35.3510   88.7180   64.1200 C.cat  13  ARG13       0.5346
     21  NH1       36.0730   89.6490   63.4950 N.pl3  13  ARG13       0.1354
     22  NH2       34.1810   89.0470   64.6580 N.pl3  13  ARG13       0.1354
     23  N         45.4160   78.4360   74.4150 N.3   123  ILE123     -0.1245
     24  CA        45.2450   79.2480   73.2260 C.3   123  ILE123      0.1561
     25  C         46.3020   78.8830   72.1940 C.2   123  ILE123      0.2260
     26  O         47.4670   78.7630   72.5270 O.2   123  ILE123     -0.2867
     27  CB        45.2660   80.7630   73.5670 C.3   123  ILE123      0.0252
     28  CG1       44.1560   81.1000   74.5840 C.3   123  ILE123      0.0019
     29  CG2       45.1690   81.6310   72.2680 C.3   123  ILE123      0.0019
     30  CD1       44.1460   82.5320   75.0680 C.3   123  ILE123      0.0001
     31  N         46.6650   80.4900   68.4370 N.3   125  GLY125     -0.1210
     32  CA        46.2550   81.2860   67.2850 C.3   125  GLY125      0.1956
     33  C         47.5580   81.6750   66.6460 C.2   125  GLY125      0.2613
     34  O         48.4610   80.8370   66.5570 O.2   125  GLY125     -0.2717
     35  N         47.7030   82.9310   66.2310 N.am  126  THR126     -0.1938
     36  CA        49.0260   83.3360   65.7680 C.3   126  THR126      0.2028
     37  C         50.0600   83.1870   66.9080 C.2   126  THR126      0.2642
     38  O         51.2010   82.8080   66.6520 O.2   126  THR126     -0.2714
     39  CB        49.1170   84.7370   65.0700 C.3   126  THR126      0.1808
     40  OG1       49.7760   85.6600   65.9250 O.3   126  THR126     -0.2208
     41  CG2       47.7920   85.2840   64.6540 C.3   126  THR126      0.0379
     42  N         49.6550   83.4650   68.1460 N.am  127  GLY127     -0.1954
     43  CA        50.4840   83.1850   69.3210 C.3   127  GLY127      0.1869
     44  C         49.8460   82.1010   70.1910 C.2   127  GLY127      0.2309
     45  O         48.8610   81.4560   69.7830 O.2   127  GLY127     -0.2863
     46  N         50.7510   79.2570   65.5810 N.3   155  ALA155     -0.1245
     47  CA        50.9660   79.3740   64.1370 C.3   155  ALA155      0.1562
     48  C         52.3460   79.9470   63.7950 C.2   155  ALA155      0.2260
     49  O         53.0140   79.4280   62.8910 O.2   155  ALA155     -0.2867
     50  CB        49.8740   80.1930   63.4930 C.3   155  ALA155      0.0290
     51  N         52.0520   88.6450   60.7460 N.3   210  CYS210     -0.1235
     52  CA        50.8440   88.0830   60.1970 C.3   210  CYS210      0.1677
     53  C         51.1010   87.1930   58.9540 C.2   210  CYS210      0.2270
     54  O         50.6680   86.0250   58.9370 O.2   210  CYS210     -0.2867
     55  CB        49.8640   89.2040   59.9060 C.3   210  CYS210      0.0956
     56  SG        48.3580   88.6370   59.1650 S.3   210  CYS210     -0.0801
     57  N         53.1780   83.9590   60.0800 N.3   213  ALA213     -0.1231
     58  CA        52.3860   82.9780   60.7930 C.3   213  ALA213      0.1694
     59  C         51.3630   82.3440   59.8580 C.2   213  ALA213      0.2592
     60  O         50.9540   81.2100   60.0800 O.2   213  ALA213     -0.2718
     61  CB        51.7120   83.6100   62.0420 C.3   213  ALA213      0.0304
     62  N         50.9770   83.0800   58.8100 N.am  214  GLY214     -0.1957
     63  CA        50.1090   82.5720   57.7370 C.3   214  GLY214      0.1869
     64  C         50.6800   81.3130   57.1010 C.2   214  GLY214      0.2309
     65  O         49.9320   80.3930   56.7360 O.2   214  GLY214     -0.2863
     66  N         51.7540   78.8320   58.3850 N.3   216  CYS216     -0.1221
     67  CA        51.2040   77.6740   59.0940 C.3   216  CYS216      0.1808
     68  C         50.1180   76.9660   58.2610 C.2   216  CYS216      0.2601
     69  O         50.1070   75.7380   58.1870 O.2   216  CYS216     -0.2717
     70  CB        50.6550   78.0850   60.4590 C.3   216  CYS216      0.0970
     71  SG        49.8890   76.7340   61.4420 S.3   216  CYS216     -0.0800
     72  N         49.2350   77.7330   57.6230 N.am  217  ARG217     -0.1979
     73  CA        48.1700   77.1570   56.8060 C.3   217  ARG217      0.1597
     74  C         48.7590   76.2350   55.7340 C.2   217  ARG217      0.2287
     75  O         48.1900   75.1790   55.4170 O.2   217  ARG217     -0.2864
     76  CB        47.2510   78.2440   56.1830 C.3   217  ARG217      0.0334
     77  CG        46.3120   78.9650   57.2010 C.3   217  ARG217      0.0492
     78  CD        45.4550   80.1090   56.6030 C.3   217  ARG217      0.2205
     79  NE        46.1380   81.4120   56.6780 N.pl3 217  ARG217     -0.0865
     80  CZ        45.7780   82.4430   57.4570 C.cat 217  ARG217      0.5346
     81  NH1       44.7030   82.3830   58.2540 N.pl3 217  ARG217      0.1354
     82  NH2       46.5020   83.5580   57.4340 N.pl3 217  ARG217      0.1354
     83  N         49.8760   72.9520   57.4430 N.3   220  ALA220     -0.1245
     84  CA        48.5980   72.2740   57.6500 C.3   220  ALA220      0.1562
     85  C         48.0320   71.5830   56.3870 C.2   220  ALA220      0.2260
     86  O         47.6100   70.4230   56.4660 O.2   220  ALA220     -0.2867
     87  CB        47.5920   73.2490   58.2240 C.3   220  ALA220      0.0290
     88  N         53.5210   69.4000   63.1310 N.3   234  PHE234     -0.1241
     89  CA        52.2530   69.4660   63.8780 C.3   234  PHE234      0.1605
     90  C         52.1860   68.5180   65.0660 C.2   234  PHE234      0.2264
     91  O         51.4570   68.7710   66.0180 O.2   234  PHE234     -0.2867
     92  CB        51.0520   69.2590   62.9680 C.3   234  PHE234      0.0534
     93  CG        50.5670   70.5150   62.3530 C.ar  234  PHE234     -0.0203
     94  CD1       51.1410   70.9980   61.1860 C.ar  234  PHE234     -0.0042
     95  CD2       49.5680   71.2630   62.9640 C.ar  234  PHE234     -0.0042
     96  CE1       50.7160   72.1700   60.6360 C.ar  234  PHE234     -0.0003
     97  CE2       49.1430   72.4450   62.4070 C.ar  234  PHE234     -0.0003
     98  CZ        49.7270   72.8990   61.2440 C.ar  234  PHE234     -0.0000
     99  N         41.4670   79.6110   69.5220 N.3   269  GLY269     -0.1210
    100  CA        42.4250   79.8450   68.4410 C.3   269  GLY269      0.1956
    101  C         42.1940   78.9790   67.2190 C.2   269  GLY269      0.2613
    102  O         41.7370   77.8480   67.3250 O.2   269  GLY269     -0.2717
    103  N         42.5260   79.5090   66.0510 N.am  270  SER270     -0.1938
    104  CA        42.3670   78.7670   64.7960 C.3   270  SER270      0.2055
    105  C         43.2760   77.5460   64.6010 C.2   270  SER270      0.2642
    106  O         42.9190   76.6660   63.8220 O.2   270  SER270     -0.2714
    107  CB        42.4680   79.7070   63.5980 C.3   270  SER270      0.2130
    108  OG        41.2910   80.5140   63.4920 O.3   270  SER270     -0.2179
    109  N         44.4210   77.4560   65.2920 N.am  271  VAL271     -0.1977
    110  CA        45.2890   76.2710   65.1080 C.3   271  VAL271      0.1596
    111  C         44.5520   74.9820   65.5080 C.2   271  VAL271      0.2287
    112  O         44.8210   73.9180   64.9730 O.2   271  VAL271     -0.2864
    113  CB        46.7010   76.3680   65.7980 C.3   271  VAL271      0.0276
    114  CG1       47.5790   75.1750   65.4200 C.3   271  VAL271      0.0022
    115  CG2       47.4250   77.5880   65.3640 C.3   271  VAL271      0.0022
    116  N         41.7990   74.1050   64.5590 N.3   273  LYS273     -0.1231
    117  CA        41.0860   73.5360   63.3980 C.3   273  LYS273      0.1693
    118  C         41.8290   72.3260   62.8010 C.2   273  LYS273      0.2592
    119  O         41.2550   71.4950   62.0790 O.2   273  LYS273     -0.2718
    120  CB        40.8260   74.5920   62.3210 C.3   273  LYS273      0.0285
    121  CG        39.7290   75.5450   62.6670 C.3   273  LYS273      0.0035
    122  CD        39.5160   76.5170   61.5590 C.3   273  LYS273      0.0206
    123  CE        39.2600   77.9060   62.1340 C.3   273  LYS273      0.1093
    124  NZ        38.4700   78.7800   61.1990 N.3   273  LYS273     -0.1314
    125  N         43.1160   72.2460   63.1160 N.am  274  SER274     -0.1952
    126  CA        43.9320   71.1230   62.7280 C.3   274  SER274      0.1924
    127  C         44.0840   70.1230   63.8740 C.2   274  SER274      0.2314
    128  O         44.9700   69.2650   63.8170 O.2   274  SER274     -0.2863
    129  CB        45.2970   71.6150   62.2510 C.3   274  SER274      0.2116
    130  OG        45.1890   72.2330   60.9860 O.3   274  SER274     -0.2180
@<TRIPOS>BOND
     1    75    74    2
     2    74    73    1
     3    76    73    1
     4    76    77    1
     5    85    86    2
     6    85    84    1
     7    78    79    1
     8    78    77    1
     9    79    80    2
    10    65    64    2
    11    73    72    1
    12    64    63    1
    13    82    80    1
    14    83    84    1
    15    80    81    1
    16    72    68   am
    17    84    87    1
    18    63    62    1
    19    69    68    2
    20    68    67    1
    21    66    67    1
    22    62    59   am
    23    54    53    2
    24    53    52    1
    25    67    70    1
    26    56    55    1
    27    59    60    2
    28    59    58    1
    29    55    52    1
    30    57    58    1
    31    52    51    1
    32    70    71    1
    33    96    94   ar
    34    96    98   ar
    35    58    61    1
    36   130   129    1
    37    94    93   ar
    38   124   123    1
    39    98    97   ar
    40   122   123    1
    41   122   121    1
    42   119   118    2
    43   129   126    1
    44   120   121    1
    45   120   117    1
    46    93    95   ar
    47    93    92    1
    48    97    95   ar
    49   126   125    1
    50   126   127    1
    51   118   125   am
    52   118   117    1
    53    49    48    2
    54    10     9    1
    55    92    89    1
    56     9    11    1
    57     9     6    1
    58    88    89    1
    59   117   116    1
    60   108   107    1
    61    50    47    1
    62    21    20    1
    63     8     7    2
    64   107   104    1
    65    18    19    1
    66    18    17    1
    67    48    47    1
    68   128   127    2
    69   106   105    2
    70    89    90    1
    71     6     7    1
    72     6     5    1
    73    20    19    2
    74    20    22    1
    75    47    46    1
    76     7    12   am
    77   105   104    1
    78   105   109   am
    79    41    39    1
    80    17    16    1
    81   104   103    1
    82    12    13    1
    83   112   111    2
    84    90    91    2
    85    39    36    1
    86    39    40    1
    87    13    16    1
    88    13    14    1
    89   110   109    1
    90   110   111    1
    91   110   113    1
    92   115   113    1
    93   114   113    1
    94     5     3   am
    95    36    35    1
    96    36    37    1
    97     4     3    2
    98    14    15    2
    99   103   101   am
   100     3     2    1
   101    35    33   am
   102    34    33    2
   103    33    32    1
   104    38    37    2
   105    37    42   am
   106   101   102    2
   107   101   100    1
   108    32    31    1
   109     2     1    1
   110    42    43    1
   111   100    99    1
   112    43    44    1
   113    45    44    2
   114    25    26    2
   115    25    24    1
   116    29    27    1
   117    24    27    1
   118    24    23    1
   119    27    28    1
   120    28    30    1
