@<TRIPOS>MOLECULE
tmp/2ch6A01.pdb
 107 100 0 0 0
SMALL
GASTEIGER

@<TRIPOS>ATOM
      1  N         43.8650   90.6950   73.5420 N.3    75  SER75      -0.1202
      2  CA        45.1090   89.9400   73.6150 C.3    75  SER75       0.2020
      3  C         46.3050   90.9000   73.7000 C.2    75  SER75       0.2619
      4  O         46.8140   91.3950   72.6850 O.2    75  SER75      -0.2717
      5  CB        45.2360   88.9900   72.4440 C.3    75  SER75       0.2103
      6  OG        45.2100   89.7250   71.2590 O.3    75  SER75      -0.2182
      7  N         46.7330   91.1440   74.9370 N.am   76  GLY76      -0.1942
      8  CA        47.7180   92.1660   75.2550 C.3    76  GLY76       0.2014
      9  C         49.0300   92.0450   74.5070 C.2    76  GLY76       0.2639
     10  O         49.4490   92.9800   73.8010 O.2    76  GLY76      -0.2714
     11  N         49.6820   90.8930   74.6400 N.am   77  GLY77      -0.1954
     12  CA        51.0920   90.7830   74.2540 C.3    77  GLY77       0.1869
     13  C         51.8850   91.3670   75.4040 C.2    77  GLY77       0.2309
     14  O         52.3940   90.6380   76.2430 O.2    77  GLY77      -0.2863
     15  N         50.9120   93.5010   78.5610 N.3    79  GLN79      -0.1245
     16  CA        50.1830   94.2940   79.5430 C.3    79  GLN79       0.1566
     17  C         51.2020   95.2450   80.1860 C.2    79  GLN79       0.2260
     18  O         51.5740   95.1200   81.3650 O.2    79  GLN79      -0.2867
     19  CB        49.4700   93.4110   80.5580 C.3    79  GLN79       0.0367
     20  CG        48.2620   92.6960   79.9690 C.3    79  GLN79       0.0905
     21  CD        48.0200   91.3480   80.6090 C.2    79  GLN79       0.2608
     22  OE1       48.8390   90.4280   80.5000 O.2    79  GLN79      -0.2717
     23  NE2       46.8850   91.2200   81.2840 N.am   79  GLN79      -0.0878
     24  N         42.1170   90.3700   79.5040 N.3   105  THR105     -0.1203
     25  CA        43.0180   89.6460   78.6520 C.3   105  THR105      0.1994
     26  C         42.1630   88.7110   77.8020 C.2   105  THR105      0.2617
     27  O         40.9830   88.4950   78.1130 O.2   105  THR105     -0.2717
     28  CB        44.0070   88.8930   79.5500 C.3   105  THR105      0.1784
     29  OG1       45.3020   88.8880   78.9570 O.3   105  THR105     -0.2211
     30  CG2       43.5570   87.4850   79.8470 C.3   105  THR105      0.0376
     31  N         42.7220   88.1860   76.7150 N.am  106  ASP106     -0.1973
     32  CA        41.9560   87.2560   75.8930 C.3   106  ASP106      0.1709
     33  C         41.6280   85.9730   76.6450 C.2   106  ASP106      0.2293
     34  O         40.5170   85.4800   76.5490 O.2   106  ASP106     -0.2864
     35  CB        42.6290   86.9500   74.5420 C.3   106  ASP106      0.1436
     36  CG        44.0960   86.5820   74.6650 C.2   106  ASP106      0.3671
     37  OD1       44.7200   86.8230   75.7250 O.co2 106  ASP106     -0.2456
     38  OD2       44.6340   86.0600   73.6630 O.co2 106  ASP106     -0.2456
     39  N         45.4160   78.4360   74.4150 N.3   123  ILE123     -0.1245
     40  CA        45.2450   79.2480   73.2260 C.3   123  ILE123      0.1561
     41  C         46.3020   78.8830   72.1940 C.2   123  ILE123      0.2260
     42  O         47.4670   78.7630   72.5270 O.2   123  ILE123     -0.2867
     43  CB        45.2660   80.7630   73.5670 C.3   123  ILE123      0.0252
     44  CG1       44.1560   81.1000   74.5840 C.3   123  ILE123      0.0019
     45  CG2       45.1690   81.6310   72.2680 C.3   123  ILE123      0.0019
     46  CD1       44.1460   82.5320   75.0680 C.3   123  ILE123      0.0001
     47  N         46.6650   80.4900   68.4370 N.3   125  GLY125     -0.1225
     48  CA        46.2550   81.2860   67.2850 C.3   125  GLY125      0.1811
     49  C         47.5580   81.6750   66.6460 C.2   125  GLY125      0.2280
     50  O         48.4610   80.8370   66.5570 O.2   125  GLY125     -0.2866
     51  N         49.6550   83.4650   68.1460 N.3   127  GLY127     -0.1210
     52  CA        50.4840   83.1850   69.3210 C.3   127  GLY127      0.1956
     53  C         49.8460   82.1010   70.1910 C.2   127  GLY127      0.2613
     54  O         48.8610   81.4560   69.7830 O.2   127  GLY127     -0.2717
     55  N         50.3970   81.8780   71.3860 N.am  128  SER128     -0.1938
     56  CA        49.8230   80.8990   72.2950 C.3   128  SER128      0.2055
     57  C         49.9500   81.3010   73.7570 C.2   128  SER128      0.2643
     58  O         50.7440   82.1890   74.1220 O.2   128  SER128     -0.2714
     59  CB        50.4270   79.5200   72.0600 C.3   128  SER128      0.2130
     60  OG        51.8130   79.5180   72.3190 O.3   128  SER128     -0.2179
     61  N         49.1620   80.6490   74.6000 N.am  129  ASN129     -0.1971
     62  CA        49.0730   81.0170   75.9930 C.3   129  ASN129      0.1688
     63  C         48.2950   79.9510   76.7060 C.2   129  ASN129      0.2292
     64  O         47.3230   79.4180   76.1660 O.2   129  ASN129     -0.2864
     65  CB        48.3080   82.3310   76.1240 C.3   129  ASN129      0.1181
     66  CG        48.5570   83.0290   77.4520 C.2   129  ASN129      0.2629
     67  OD1       49.1000   82.4440   78.3910 O.2   129  ASN129     -0.2716
     68  ND2       48.1640   84.2920   77.5280 N.am  129  ASN129     -0.0877
     69  N         52.7930   83.0100   77.5810 N.3   144  GLY144     -0.1210
     70  CA        52.1790   83.9400   76.6230 C.3   144  GLY144      0.1956
     71  C         53.0980   85.0960   76.2640 C.2   144  GLY144      0.2612
     72  O         52.6620   86.2420   76.1840 O.2   144  GLY144     -0.2717
     73  N         54.3690   84.8040   76.0260 N.am  145  TRP145     -0.1962
     74  CA        55.3710   85.8590   75.9000 C.3   145  TRP145      0.1771
     75  C         55.6370   86.3470   74.4740 C.2   145  TRP145      0.2620
     76  O         56.6440   87.0320   74.2380 O.2   145  TRP145     -0.2715
     77  CB        56.6710   85.4180   76.5640 C.3   145  TRP145      0.0590
     78  CG        56.4400   84.8600   77.9290 C.ar  145  TRP145      0.0006
     79  CD1       56.5600   83.5570   78.3180 C.ar  145  TRP145      0.0946
     80  CD2       56.0070   85.5880   79.0800 C.ar  145  TRP145      0.0152
     81  NE1       56.2410   83.4310   79.6450 N.ar  145  TRP145     -0.2442
     82  CE2       55.9000   84.6650   80.1380 C.ar  145  TRP145      0.0810
     83  CE3       55.7020   86.9320   79.3210 C.ar  145  TRP145      0.0012
     84  CZ2       55.4920   85.0440   81.4180 C.ar  145  TRP145      0.0191
     85  CZ3       55.3040   87.3060   80.5920 C.ar  145  TRP145      0.0001
     86  CH2       55.2010   86.3700   81.6230 C.ar  145  TRP145      0.0015
     87  N         54.7420   86.0130   73.5380 N.am  146  GLY146     -0.1954
     88  CA        54.8510   86.4640   72.1570 C.3   146  GLY146      0.1869
     89  C         55.9160   85.7510   71.3460 C.2   146  GLY146      0.2309
     90  O         56.4870   84.7640   71.8010 O.2   146  GLY146     -0.2863
     91  N         55.9310   81.4460   72.4970 N.3   151  ASP151     -0.1239
     92  CA        54.7840   81.1060   71.6570 C.3   151  ASP151      0.1674
     93  C         54.8110   79.6620   71.1480 C.2   151  ASP151      0.2266
     94  O         54.3670   79.3750   70.0280 O.2   151  ASP151     -0.2867
     95  CB        54.6290   82.1030   70.5020 C.3   151  ASP151      0.1410
     96  CG        53.7640   83.3120   70.8770 C.2   151  ASP151      0.3668
     97  OD1       53.1770   83.3100   71.9930 O.co2 151  ASP151     -0.2456
     98  OD2       53.6520   84.2560   70.0400 O.co2 151  ASP151     -0.2456
     99  N         54.5210   89.7890   60.7450 N.3   209  LYS209     -0.1245
    100  CA        54.2770   88.6530   61.6360 C.3   209  LYS209      0.1561
    101  C         53.0510   87.8920   61.1740 C.2   209  LYS209      0.2260
    102  O         53.0260   86.6670   61.1660 O.2   209  LYS209     -0.2867
    103  CB        54.1040   89.1310   63.0720 C.3   209  LYS209      0.0271
    104  CG        53.5890   88.0890   64.0690 C.3   209  LYS209      0.0035
    105  CD        53.7140   88.6370   65.4760 C.3   209  LYS209      0.0206
    106  CE        52.6710   88.0560   66.4170 C.3   209  LYS209      0.1093
    107  NZ        53.1510   86.8770   67.2240 N.3   209  LYS209     -0.1314
@<TRIPOS>BOND
     1    99   100    1
     2   102   101    2
     3   101   100    1
     4   100   103    1
     5   103   104    1
     6   104   105    1
     7   105   106    1
     8   106   107    1
     9    50    49    2
    10    49    48    1
    11    48    47    1
    12    51    52    1
    13    52    53    1
    14    54    53    2
    15    94    93    2
    16    98    96   ar
    17    53    55   am
    18    95    96    1
    19    95    92    1
    20    96    97   ar
    21    93    92    1
    22     6     5    1
    23    89    90    2
    24    89    88    1
    25    55    56    1
    26    92    91    1
    27    59    56    1
    28    59    60    1
    29    88    87    1
    30    41    42    2
    31    41    40    1
    32    45    43    1
    33    56    57    1
    34     5     2    1
    35     4     3    2
    36    40    43    1
    37    40    39    1
    38    87    75   am
    39     1     2    1
    40    43    44    1
    41     2     3    1
    42    38    36   ar
    43     3     7   am
    44    57    58    2
    45    57    61   am
    46    10     9    2
    47    76    75    2
    48    12    11    1
    49    12    13    1
    50    75    74    1
    51     9    11   am
    52     9     8    1
    53    35    36    1
    54    35    32    1
    55    44    46    1
    56    61    62    1
    57    36    37   ar
    58     7     8    1
    59    13    14    2
    60    32    33    1
    61    32    31    1
    62    74    73    1
    63    74    77    1
    64    62    65    1
    65    62    63    1
    66    73    71   am
    67    65    66    1
    68    64    63    2
    69    72    71    2
    70    71    70    1
    71    34    33    2
    72    77    78    1
    73    70    69    1
    74    31    26   am
    75    66    68   am
    76    66    67    2
    77    26    27    2
    78    26    25    1
    79    78    79   ar
    80    78    80   ar
    81    79    81   ar
    82    15    16    1
    83    25    24    1
    84    25    28    1
    85    29    28    1
    86    80    83   ar
    87    80    82   ar
    88    83    85   ar
    89    16    17    1
    90    16    19    1
    91    28    30    1
    92    81    82   ar
    93    20    19    1
    94    20    21    1
    95    82    84   ar
    96    17    18    2
    97    22    21    2
    98    85    86   ar
    99    21    23   am
   100    84    86   ar
