@<TRIPOS>MOLECULE
tmp/2ch8A00.pdb
 104 105 0 0 0
SMALL
GASTEIGER

@<TRIPOS>ATOM
      1  N         55.0400   52.4060   -5.3960 N.3    30  LYS30      -0.1245
      2  CA        55.6680   53.6970   -5.4860 C.3    30  LYS30       0.1561
      3  C         55.8830   53.9070   -6.9530 C.2    30  LYS30       0.2260
      4  O         56.4350   53.0320   -7.6190 O.2    30  LYS30      -0.2867
      5  CB        57.0200   53.7240   -4.7260 C.3    30  LYS30       0.0271
      6  CG        57.5570   55.1320   -4.5330 C.3    30  LYS30       0.0035
      7  CD        58.9560   55.1040   -3.9540 C.3    30  LYS30       0.0206
      8  CE        59.3050   56.3950   -3.2840 C.3    30  LYS30       0.1093
      9  NZ        59.3180   57.5220   -4.2740 N.3    30  LYS30      -0.1314
     10  N         61.1380   43.6600    1.1230 N.3    52  TRP52      -0.1228
     11  CA        62.3670   43.8760    1.8840 C.3    52  TRP52       0.1722
     12  C         62.9900   45.2610    1.7450 C.2    52  TRP52       0.2437
     13  O         63.2830   45.8720    2.7800 O.2    52  TRP52      -0.2733
     14  CB        63.3880   42.6980    1.7730 C.3    52  TRP52       0.0563
     15  CG        62.9260   41.4740    2.6110 C.ar   52  TRP52       0.0003
     16  CD1       62.5200   40.2190    2.1320 C.ar   52  TRP52       0.0946
     17  CD2       62.7640   41.4050    4.0570 C.ar   52  TRP52       0.0152
     18  NE1       62.1590   39.4050    3.1890 N.ar   52  TRP52      -0.2442
     19  CE2       62.2920   40.1030    4.3690 C.ar   52  TRP52       0.0810
     20  CE3       62.9960   42.3110    5.1100 C.ar   52  TRP52       0.0012
     21  CZ2       62.0380   39.6920    5.6940 C.ar   52  TRP52       0.0191
     22  CZ3       62.7490   41.8990    6.4360 C.ar   52  TRP52       0.0001
     23  CH2       62.2720   40.5910    6.7080 C.ar   52  TRP52       0.0015
     24  N         63.1490   45.7900    0.5120 N.am   53  PRO53      -0.2718
     25  CA        63.6590   47.1740    0.3980 C.3    53  PRO53       0.1535
     26  C         62.8590   48.2880    1.1050 C.2    53  PRO53       0.2598
     27  O         63.3680   49.3870    1.2420 O.2    53  PRO53      -0.2715
     28  CB        63.6380   47.4390   -1.1320 C.3    53  PRO53       0.0310
     29  CG        63.8470   46.0800   -1.7080 C.3    53  PRO53       0.0237
     30  CD        62.9450   45.1870   -0.8180 C.3    53  PRO53       0.0939
     31  N         61.5970   48.0190    1.4740 N.am   54  PHE54      -0.1974
     32  CA        60.6960   49.0430    2.0530 C.3    54  PHE54       0.1639
     33  C         60.4430   48.7410    3.5100 C.2    54  PHE54       0.2290
     34  O         59.9010   49.5570    4.2150 O.2    54  PHE54      -0.2864
     35  CB        59.4010   49.1800    1.2320 C.3    54  PHE54       0.0560
     36  CG        59.6440   49.7440   -0.1840 C.ar   54  PHE54      -0.0200
     37  CD1       59.9060   51.1390   -0.3900 C.ar   54  PHE54      -0.0042
     38  CD2       59.6240   48.9180   -1.2610 C.ar   54  PHE54      -0.0042
     39  CE1       60.1650   51.6560   -1.6620 C.ar   54  PHE54      -0.0003
     40  CE2       59.8780   49.4320   -2.5540 C.ar   54  PHE54      -0.0003
     41  CZ        60.1490   50.7950   -2.7650 C.ar   54  PHE54      -0.0000
     42  N         60.4940   51.2600    6.5870 N.3    57  PHE57      -0.1227
     43  CA        60.2660   52.5830    6.0100 C.3    57  PHE57       0.1736
     44  C         58.7570   52.7740    5.7280 C.2    57  PHE57       0.2595
     45  O         58.2550   53.8780    5.7120 O.2    57  PHE57      -0.2718
     46  CB        61.0730   52.7170    4.7140 C.3    57  PHE57       0.0547
     47  CG        62.5820   52.6290    4.9170 C.ar   57  PHE57      -0.0202
     48  CD1       63.2610   51.4550    4.6040 C.ar   57  PHE57      -0.0042
     49  CD2       63.3130   53.7030    5.4890 C.ar   57  PHE57      -0.0042
     50  CE1       64.6240   51.3650    4.7970 C.ar   57  PHE57      -0.0003
     51  CE2       64.7170   53.6180    5.7180 C.ar   57  PHE57      -0.0003
     52  CZ        65.3660   52.4690    5.3760 C.ar   57  PHE57      -0.0000
     53  N         58.0380   51.6940    5.4330 N.am   58  PHE58      -0.1976
     54  CA        56.5880   51.8150    5.1180 C.3    58  PHE58       0.1639
     55  C         55.8610   50.6580    5.7670 C.2    58  PHE58       0.2290
     56  O         56.4060   49.5530    5.8240 O.2    58  PHE58      -0.2864
     57  CB        56.3230   51.6680    3.6140 C.3    58  PHE58       0.0560
     58  CG        56.7680   52.8430    2.7710 C.ar   58  PHE58      -0.0200
     59  CD1       58.0500   52.8960    2.2310 C.ar   58  PHE58      -0.0042
     60  CD2       55.8940   53.8290    2.4550 C.ar   58  PHE58      -0.0042
     61  CE1       58.4380   53.9420    1.4210 C.ar   58  PHE58      -0.0003
     62  CE2       56.2900   54.8940    1.6600 C.ar   58  PHE58      -0.0003
     63  CZ        57.5640   54.9390    1.1350 C.ar   58  PHE58      -0.0000
     64  N         61.2730   60.7380    4.2590 N.3    75  ASN75      -0.1240
     65  CA        62.5160   61.2140    3.6850 C.3    75  ASN75       0.1653
     66  C         62.2670   61.7600    2.2700 C.2    75  ASN75       0.2266
     67  O         61.1890   61.5390    1.6840 O.2    75  ASN75      -0.2867
     68  CB        63.7380   60.2500    3.8420 C.3    75  ASN75       0.1155
     69  CG        63.7560   59.0300    2.8650 C.2    75  ASN75       0.2627
     70  OD1       63.3730   59.0780    1.7180 O.2    75  ASN75      -0.2716
     71  ND2       64.2510   57.9330    3.3590 N.am   75  ASN75      -0.0877
     72  N         63.3850   61.0010   -0.6460 N.3    77  SER77      -0.1202
     73  CA        63.1090   60.0230   -1.6810 C.3    77  SER77       0.2020
     74  C         61.6060   59.6130   -1.7260 C.2    77  SER77       0.2618
     75  O         61.1440   59.0890   -2.7510 O.2    77  SER77      -0.2717
     76  CB        64.0310   58.8050   -1.5290 C.3    77  SER77       0.2103
     77  OG        63.5160   57.8090   -0.6510 O.3    77  SER77      -0.2182
     78  N         60.8680   59.8440   -0.6270 N.am   78  HIS78      -0.1975
     79  CA        59.4430   59.4580   -0.5160 C.3    78  HIS78       0.1656
     80  C         58.5040   60.4360   -1.2110 C.2    78  HIS78       0.2291
     81  O         57.2890   60.1610   -1.3520 O.2    78  HIS78      -0.2864
     82  CB        59.0200   59.2930    0.9730 C.3    78  HIS78       0.0771
     83  CG        59.8100   58.2370    1.6870 C.ar   78  HIS78       0.0820
     84  ND1       60.1270   58.3040    3.0240 N.ar   78  HIS78      -0.2267
     85  CD2       60.4190   57.1300    1.2180 C.ar   78  HIS78       0.1154
     86  CE1       60.8800   57.2710    3.3600 C.ar   78  HIS78       0.1986
     87  NE2       61.0880   56.5480    2.2690 N.ar   78  HIS78      -0.2212
     88  N         73.5310   65.3870    1.6770 N.3   148  LYS148     -0.1231
     89  CA        73.3700   63.9300    1.8610 C.3   148  LYS148      0.1693
     90  C         71.9100   63.5050    2.0140 C.2   148  LYS148      0.2592
     91  O         71.5430   62.3910    1.6090 O.2   148  LYS148     -0.2718
     92  CB        74.1800   63.3980    3.0680 C.3   148  LYS148      0.0285
     93  CG        75.4990   64.1320    3.3650 C.3   148  LYS148      0.0035
     94  CD        76.6710   63.1200    3.6320 C.3   148  LYS148      0.0206
     95  CE        77.6580   63.5630    4.7520 C.3   148  LYS148      0.1093
     96  NZ        78.8500   64.2390    4.2380 N.3   148  LYS148     -0.1314
     97  N         71.0810   64.3720    2.6020 N.am  149  ASP149     -0.1974
     98  CA        69.6990   63.9950    2.9020 C.3   149  ASP149      0.1709
     99  C         68.7260   64.2480    1.7280 C.2   149  ASP149      0.2293
    100  O         67.5750   63.9370    1.8340 O.2   149  ASP149     -0.2864
    101  CB        69.2030   64.6400    4.2270 C.3   149  ASP149      0.1436
    102  CG        69.0940   66.1790    4.1540 C.2   149  ASP149      0.3671
    103  OD1       68.5460   66.7950    5.0960 O.co2 149  ASP149     -0.2456
    104  OD2       69.5340   66.7960    3.1530 O.co2 149  ASP149     -0.2456
@<TRIPOS>BOND
     1     4     3    2
     2     3     2    1
     3     2     1    1
     4     2     5    1
     5     5     6    1
     6     6     7    1
     7     9     8    1
     8     7     8    1
     9    41    40   ar
    10    41    39   ar
    11    75    74    2
    12    40    38   ar
    13    74    73    1
    14    74    78   am
    15    29    28    1
    16    29    30    1
    17    73    76    1
    18    73    72    1
    19    39    37   ar
    20    76    77    1
    21    81    80    2
    22    38    36   ar
    23    80    79    1
    24    28    25    1
    25    30    24    1
    26    78    79    1
    27    79    82    1
    28    37    36   ar
    29    36    35    1
    30    25    24    1
    31    25    26    1
    32    24    12   am
    33    82    83    1
    34    26    27    2
    35    26    31   am
    36    10    11    1
    37    63    61   ar
    38    63    62   ar
    39    85    83   ar
    40    85    87   ar
    41    35    32    1
    42    61    59   ar
    43    31    32    1
    44    91    90    2
    45    62    60   ar
    46    88    89    1
    47    67    66    2
    48    83    84   ar
    49    70    69    2
    50    99   100    2
    51    99    98    1
    52    12    11    1
    53    12    13    2
    54    14    11    1
    55    14    15    1
    56    89    90    1
    57    89    92    1
    58    90    97   am
    59    32    33    1
    60    16    15   ar
    61    16    18   ar
    62    59    58   ar
    63    87    86   ar
    64    66    65    1
    65    60    58   ar
    66    97    98    1
    67    15    17   ar
    68    58    57    1
    69    69    71   am
    70    69    68    1
    71    98   101    1
    72    84    86   ar
    73    92    93    1
    74   104   102   ar
    75    18    19   ar
    76    93    94    1
    77    33    34    2
    78    57    54    1
    79    94    95    1
    80    65    68    1
    81    65    64    1
    82    17    19   ar
    83    17    20   ar
    84   102   101    1
    85   102   103   ar
    86    96    95    1
    87    19    21   ar
    88    48    50   ar
    89    48    47   ar
    90    46    47    1
    91    46    43    1
    92    50    52   ar
    93    47    49   ar
    94    20    22   ar
    95    54    53    1
    96    54    55    1
    97    52    51   ar
    98    53    44   am
    99    49    51   ar
   100    21    23   ar
   101    45    44    2
   102    44    43    1
   103    55    56    2
   104    43    42    1
   105    22    23   ar
