@<TRIPOS>MOLECULE
tmp/2chaB00.pdb
 113 116 0 0 0
SMALL
GASTEIGER

@<TRIPOS>ATOM
      1  N          5.9570  -16.6320   15.1830 N.3     8  VAL8       -0.1231
      2  CA         4.6670  -17.0250   15.7670 C.3     8  VAL8        0.1678
      3  C          3.7240  -15.7750   15.7280 C.2     8  VAL8        0.2434
      4  O          4.2500  -14.6970   16.0470 O.2     8  VAL8       -0.2733
      5  CB         4.7860  -17.8320   17.0700 C.3     8  VAL8        0.0265
      6  CG1        3.4900  -18.3680   17.6710 C.3     8  VAL8        0.0020
      7  CG2        5.7520  -18.9960   16.8910 C.3     8  VAL8        0.0020
      8  N          2.4560  -15.7450   15.2490 N.am    9  PRO9       -0.2718
      9  CA         1.6970  -14.4730   15.2690 C.3     9  PRO9        0.1535
     10  C          1.5130  -13.9020   16.6810 C.2     9  PRO9        0.2599
     11  O          1.4330  -14.6880   17.6380 O.2     9  PRO9       -0.2715
     12  CB         0.3380  -14.7390   14.6280 C.3     9  PRO9        0.0310
     13  CG         0.5230  -16.0360   13.8570 C.3     9  PRO9        0.0237
     14  CD         1.5590  -16.7940   14.6560 C.3     9  PRO9        0.0939
     15  N          1.7680  -12.6070   16.8130 N.am   10  GLY10      -0.1941
     16  CA         1.6600  -11.9040   18.0960 C.3    10  GLY10       0.2014
     17  C          2.8320  -12.3800   18.9550 C.2    10  GLY10       0.2640
     18  O          3.0010  -11.8280   20.0550 O.2    10  GLY10      -0.2714
     19  N          3.7400  -13.1290   18.3300 N.am   11  SER11      -0.1935
     20  CA         4.9280  -13.6630   19.0250 C.3    11  SER11       0.2055
     21  C          5.7750  -12.5100   19.5430 C.2    11  SER11       0.2643
     22  O          6.7730  -12.7870   20.2200 O.2    11  SER11      -0.2714
     23  CB         5.8030  -14.6650   18.2640 C.3    11  SER11       0.2130
     24  OG         7.0590  -14.1990   17.7940 O.3    11  SER11      -0.2179
     25  N          5.6330  -11.4150   18.8110 N.am   12  TRP12      -0.1960
     26  CA         6.3560  -10.1710   19.1310 C.3    12  TRP12       0.1756
     27  C          5.4180   -9.0990   19.6750 C.2    12  TRP12       0.2462
     28  O          5.4210   -8.0720   18.9500 O.2    12  TRP12      -0.2730
     29  CB         7.3830   -9.8000   18.0550 C.3    12  TRP12       0.0590
     30  CG         8.2590  -10.9980   17.6130 C.ar   12  TRP12       0.0006
     31  CD1        8.0640  -11.6810   16.4150 C.ar   12  TRP12       0.0946
     32  CD2        9.3250  -11.6550   18.2570 C.ar   12  TRP12       0.0152
     33  NE1        9.0030  -12.6510   16.2830 N.ar   12  TRP12      -0.2442
     34  CE2        9.7800  -12.6290   17.3900 C.ar   12  TRP12       0.0810
     35  CE3        9.9130  -11.4150   19.4960 C.ar   12  TRP12       0.0012
     36  CZ2       10.8900  -13.4170   17.6440 C.ar   12  TRP12       0.0191
     37  CZ3       11.0140  -12.2180   19.7750 C.ar   12  TRP12       0.0001
     38  CH2       11.4850  -13.1780   18.8780 C.ar   12  TRP12       0.0015
     39  N          5.0090   -8.9670   20.9680 N.am   13  PRO13      -0.2716
     40  CA         3.8900   -8.0800   21.3800 C.3    13  PRO13       0.1536
     41  C          4.0390   -6.6120   20.9620 C.2    13  PRO13       0.2598
     42  O          3.0550   -5.9890   20.5670 O.2    13  PRO13      -0.2715
     43  CB         3.8320   -8.1470   22.9040 C.3    13  PRO13       0.0310
     44  CG         4.9980   -8.9320   23.4330 C.3    13  PRO13       0.0237
     45  CD         5.3750   -9.7290   22.1840 C.3    13  PRO13       0.0939
     46  N          5.3010   -6.1900   20.9640 N.am   14  TRP14      -0.1974
     47  CA         5.7990   -4.8340   20.6840 C.3    14  TRP14       0.1640
     48  C          5.8370   -4.3170   19.2440 C.2    14  TRP14       0.2290
     49  O          6.0460   -3.1020   19.0980 O.2    14  TRP14      -0.2864
     50  CB         7.1290   -4.5880   21.3980 C.3    14  TRP14       0.0576
     51  CG         8.2990   -5.5890   21.1090 C.ar   14  TRP14       0.0006
     52  CD1        9.1580   -5.5190   20.0150 C.ar   14  TRP14       0.0946
     53  CD2        8.7110   -6.7070   21.8460 C.ar   14  TRP14       0.0152
     54  NE1       10.0600   -6.5260   20.0850 N.ar   14  TRP14      -0.2442
     55  CE2        9.8030   -7.2540   21.1990 C.ar   14  TRP14       0.0810
     56  CE3        8.2080   -7.2390   23.0280 C.ar   14  TRP14       0.0012
     57  CZ2       10.5060   -8.3580   21.6570 C.ar   14  TRP14       0.0191
     58  CZ3        8.8940   -8.3540   23.4950 C.ar   14  TRP14       0.0001
     59  CH2        9.9990   -8.8930   22.8360 C.ar   14  TRP14       0.0015
     60  N         -2.8120   -6.3670   25.1880 N.3   100  SER100     -0.1202
     61  CA        -3.4930   -7.6680   25.1190 C.3   100  SER100      0.2020
     62  C         -2.4950   -8.8200   25.2420 C.2   100  SER100      0.2619
     63  O         -1.3620   -8.6510   25.7290 O.2   100  SER100     -0.2717
     64  CB        -4.3320   -7.7350   23.8390 C.3   100  SER100      0.2103
     65  OG        -3.7240   -7.0190   22.7670 O.3   100  SER100     -0.2182
     66  N         -2.9780  -10.0060   24.8830 N.am  101  GLN101     -0.1965
     67  CA        -2.1370  -11.1890   24.6700 C.3   101  GLN101      0.1732
     68  C         -1.1330  -10.9210   23.5390 C.2   101  GLN101      0.2613
     69  O          0.0220  -10.8170   23.9220 O.2   101  GLN101     -0.2715
     70  CB        -2.9830  -12.4230   24.3470 C.3   101  GLN101      0.0408
     71  CG        -3.0240  -13.5090   25.4240 C.3   101  GLN101      0.0908
     72  CD        -4.2430  -13.5060   26.3460 C.2   101  GLN101      0.2608
     73  OE1       -5.2290  -12.7970   26.1220 O.2   101  GLN101     -0.2717
     74  NE2       -4.2070  -14.4150   27.3150 N.am  101  GLN101     -0.0878
     75  N         -1.5520  -10.1080   22.5670 N.am  102  THR102     -0.2004
     76  CA        -0.7560   -9.8130   21.3560 C.3   102  THR102      0.1584
     77  C          0.0710   -8.5200   21.3070 C.3   102  THR102      0.2062
     78  O          0.8820   -8.4630   20.3710 O.3   102  THR102     -0.2184
     79  CB        -1.5780  -10.0070   20.0930 C.3   102  THR102      0.1745
     80  OG1       -2.6680   -9.0900   20.1420 O.3   102  THR102     -0.2212
     81  CG2       -2.0890  -11.4410   19.9510 C.3   102  THR102      0.0374
     82  N          1.9310   -5.4470   23.2520 N.3   104  SER104     -0.1202
     83  CA         2.6670   -5.0880   24.5000 C.3   104  SER104      0.2020
     84  C          4.0340   -4.4410   24.2140 C.2   104  SER104      0.2619
     85  O          4.5460   -4.6140   23.1100 O.2   104  SER104     -0.2717
     86  CB         2.7890   -6.1240   25.6290 C.3   104  SER104      0.2103
     87  OG         1.6570   -6.9790   25.7640 O.3   104  SER104     -0.2182
     88  N          4.8030   -4.1430   25.2600 N.am  105  ALA105     -0.1965
     89  CA         6.0480   -3.3650   25.1380 C.3   105  ALA105      0.1728
     90  C          7.3680   -4.1270   25.3290 C.2   105  ALA105      0.2616
     91  O          7.5530   -4.8050   26.3570 O.2   105  ALA105     -0.2715
     92  CB         5.9480   -2.2170   26.1380 C.3   105  ALA105      0.0334
     93  N          8.3450   -3.6140   24.5810 N.am  106  VAL106     -0.1963
     94  CA         9.7670   -4.0020   24.6340 C.3   106  VAL106      0.1727
     95  C         10.4040   -3.3050   25.8570 C.2   106  VAL106      0.2616
     96  O         10.1340   -2.1100   26.0950 O.2   106  VAL106     -0.2715
     97  CB        10.5040   -3.8010   23.2870 C.3   106  VAL106      0.0290
     98  CG1       10.7800   -2.3870   22.7490 C.3   106  VAL106      0.0023
     99  CG2       11.7290   -4.6940   23.0750 C.3   106  VAL106      0.0023
    100  N         11.2830   -4.0340   26.5210 N.am  107  CYS107     -0.1954
    101  CA        12.0810   -3.4570   27.6040 C.3   107  CYS107      0.1843
    102  C         13.2600   -2.6410   27.0520 C.2   107  CYS107      0.2622
    103  O         13.6550   -2.7740   25.8770 O.2   107  CYS107     -0.2715
    104  CB        12.4180   -4.5620   28.6040 C.3   107  CYS107      0.0997
    105  SG        11.6990   -4.2900   30.2370 S.3   107  CYS107     -0.0797
    106  N         13.7130   -1.7440   27.9150 N.am  108  LEU108     -0.2030
    107  CA        14.8090   -0.8360   27.5800 C.3   108  LEU108      0.1282
    108  C         16.2220   -1.1480   28.1050 C.3   108  LEU108      0.2036
    109  O         16.2360   -1.3260   29.3340 O.3   108  LEU108     -0.2185
    110  CB        14.5250    0.6650   27.5900 C.3   108  LEU108      0.0244
    111  CG        13.9780    1.2510   26.2890 C.3   108  LEU108      0.0018
    112  CD1       12.8240    2.2020   26.5920 C.3   108  LEU108      0.0001
    113  CD2       15.0170    1.9080   25.3710 C.3   108  LEU108      0.0001
@<TRIPOS>BOND
     1    13    12    1
     2    13    14    1
     3    12     9    1
     4    14     8    1
     5     1     2    1
     6     8     9    1
     7     8     3   am
     8     9    10    1
     9     3     2    1
    10     3     4    2
    11     2     5    1
    12    33    31   ar
    13    33    34   ar
    14    31    30   ar
    15    10    15   am
    16    10    11    2
    17    15    16    1
    18     7     5    1
    19     5     6    1
    20    34    36   ar
    21    34    32   ar
    22    30    29    1
    23    30    32   ar
    24    36    38   ar
    25    24    23    1
    26    29    26    1
    27    16    17    1
    28    32    35   ar
    29    23    20    1
    30    19    17   am
    31    19    20    1
    32    25    26    1
    33    25    21   am
    34    38    37   ar
    35    28    27    2
    36    17    18    2
    37    20    21    1
    38    49    48    2
    39    26    27    1
    40    48    47    1
    41    35    37   ar
    42    21    22    2
    43    27    39   am
    44    81    79    1
    45    52    54   ar
    46    52    51   ar
    47    54    55   ar
    48    79    80    1
    49    79    76    1
    50    78    77    1
    51    42    41    2
    52    47    46    1
    53    47    50    1
    54    41    46   am
    55    41    40    1
    56    39    40    1
    57    39    45    1
    58    51    50    1
    59    51    53   ar
    60    55    57   ar
    61    55    53   ar
    62    77    76    1
    63    76    75    1
    64    40    43    1
    65    57    59   ar
    66    53    56   ar
    67    45    44    1
    68    75    68   am
    69    98    97    1
    70    65    64    1
    71    59    58   ar
    72    43    44    1
    73    56    58   ar
    74    99    97    1
    75    85    84    2
    76    82    83    1
    77    97    94    1
    78    68    69    2
    79    68    67    1
    80    64    61    1
    81    84    83    1
    82    84    88   am
    83    70    67    1
    84    70    71    1
    85    83    86    1
    86    93    94    1
    87    93    90   am
    88    94    95    1
    89    67    66    1
    90    66    62   am
    91    61    60    1
    92    61    62    1
    93    89    88    1
    94    89    90    1
    95    89    92    1
    96    62    63    2
    97    90    91    2
    98   113   111    1
    99    71    72    1
   100    86    87    1
   101    95    96    2
   102    95   100   am
   103   103   102    2
   104    73    72    2
   105   111   112    1
   106   111   110    1
   107    72    74   am
   108   100   101    1
   109   102   101    1
   110   102   106   am
   111   107   110    1
   112   107   106    1
   113   107   108    1
   114   101   104    1
   115   108   109    1
   116   104   105    1
