@<TRIPOS>MOLECULE
tmp/2chaC00.pdb
 83 81 0 0 0
SMALL
GASTEIGER

@<TRIPOS>ATOM
      1  N         20.1550  -10.6850    6.5490 N.3    41  SER41      -0.1202
      2  CA        20.2120   -9.2090    6.5280 C.3    41  SER41       0.2020
      3  C         18.7930   -8.6690    6.5450 C.2    41  SER41       0.2619
      4  O         17.8490   -9.3120    6.0450 O.2    41  SER41      -0.2717
      5  CB        20.9550   -8.5580    5.3460 C.3    41  SER41       0.2103
      6  OG        20.7270   -9.3500    4.1890 O.3    41  SER41      -0.2182
      7  N         18.6620   -7.5950    7.3070 N.am   42  SER42      -0.1937
      8  CA        17.4630   -6.7860    7.0530 C.3    42  SER42       0.2055
      9  C         17.6010   -6.3290    5.5910 C.2    42  SER42       0.2643
     10  O         18.5020   -6.6970    4.8000 O.2    42  SER42      -0.2714
     11  CB        17.4590   -5.5830    7.9850 C.3    42  SER42       0.2130
     12  OG        17.5450   -6.0080    9.3450 O.3    42  SER42      -0.2179
     13  N         16.4360   -6.0010    5.0820 N.am   43  CYS43      -0.1953
     14  CA        16.3040   -5.4300    3.7320 C.3    43  CYS43       0.1843
     15  C         15.4150   -4.1870    3.8370 C.2    43  CYS43       0.2625
     16  O         15.0150   -3.7190    4.9250 O.2    43  CYS43      -0.2714
     17  CB        15.8010   -6.5150    2.7680 C.3    43  CYS43       0.0997
     18  SG        16.4410   -6.4290    1.0760 S.3    43  CYS43      -0.0797
     19  N         14.9510   -3.7500    2.6800 N.am   44  MET44      -0.1963
     20  CA        13.9810   -2.6460    2.6110 C.3    44  MET44       0.1736
     21  C         12.6260   -3.0810    3.1660 C.2    44  MET44       0.2617
     22  O         12.2600   -4.2600    3.0630 O.2    44  MET44      -0.2715
     23  CB        13.8200   -2.1490    1.1860 C.3    44  MET44       0.0427
     24  CG        15.1020   -1.4670    0.7450 C.3    44  MET44       0.0599
     25  SD        15.5170   -1.8340   -0.9700 S.3    44  MET44      -0.1393
     26  CE        17.3080   -1.8620   -0.7460 C.3    44  MET44       0.0692
     27  N         12.1050   -2.2060    4.0080 N.am   45  GLY45      -0.1955
     28  CA        10.8010   -2.4420    4.6350 C.3    45  GLY45       0.1869
     29  C         11.0680   -2.7240    6.1050 C.2    45  GLY45       0.2309
     30  O         10.1440   -2.5420    6.9130 O.2    45  GLY45      -0.2863
     31  N         13.7300   -1.3010    7.9730 N.3    47  SER47      -0.1217
     32  CA        14.2520   -0.1430    8.7240 C.3    47  SER47       0.1889
     33  C         13.2520    0.4700    9.7180 C.2    47  SER47       0.2288
     34  O         12.0200    0.6000    9.6200 O.2    47  SER47      -0.2866
     35  CB        14.7750    0.8840    7.7320 C.3    47  SER47       0.2089
     36  OG        15.8980    0.3740    6.9590 O.3    47  SER47      -0.2183
     37  N         17.1610   -0.7560   13.3300 N.3    65  VAL65      -0.1231
     38  CA        17.5800   -1.0270   11.9390 C.3    65  VAL65       0.1692
     39  C         17.7870    0.3150   11.2220 C.2    65  VAL65       0.2593
     40  O         16.7800    0.9060   10.8030 O.2    65  VAL65      -0.2718
     41  CB        16.5860   -1.9610   11.2240 C.3    65  VAL65       0.0266
     42  CG1       17.0010   -2.4900    9.8470 C.3    65  VAL65       0.0020
     43  CG2       16.2180   -3.1670   12.0760 C.3    65  VAL65       0.0020
     44  N         19.0440    0.5240   10.8440 N.am   66  SER66      -0.1938
     45  CA        19.4650    1.7220   10.1090 C.3    66  SER66       0.2055
     46  C         19.5650    1.5520    8.5960 C.2    66  SER66       0.2643
     47  O         18.9560    2.3790    7.9000 O.2    66  SER66      -0.2714
     48  CB        20.7060    2.3560   10.7280 C.3    66  SER66       0.2130
     49  OG        20.3290    3.5980   11.3060 O.3    66  SER66      -0.2179
     50  N         20.6600    0.8990    8.1900 N.am   67  TRP67      -0.1959
     51  CA        21.1030    0.7360    6.7810 C.3    67  TRP67       0.1771
     52  C         21.9700   -0.5180    6.5810 C.2    67  TRP67       0.2620
     53  O         22.4850   -1.0650    7.5700 O.2    67  TRP67      -0.2715
     54  CB        21.9070    1.9840    6.3780 C.3    67  TRP67       0.0590
     55  CG        23.2280    2.3370    7.1540 C.ar   67  TRP67       0.0006
     56  CD1       23.3150    3.0380    8.3550 C.ar   67  TRP67       0.0946
     57  CD2       24.5500    2.0150    6.8150 C.ar   67  TRP67       0.0152
     58  NE1       24.6150    3.1690    8.7230 N.ar   67  TRP67      -0.2442
     59  CE2       25.3790    2.5480    7.7850 C.ar   67  TRP67       0.0810
     60  CE3       25.0540    1.3050    5.7270 C.ar   67  TRP67       0.0012
     61  CZ2       26.7620    2.4110    7.7640 C.ar   67  TRP67       0.0191
     62  CZ3       26.4370    1.1660    5.6940 C.ar   67  TRP67       0.0001
     63  CH2       27.2690    1.6980    6.6780 C.ar   67  TRP67       0.0015
     64  N         22.3520   -0.7850    5.3300 N.am   68  GLY68      -0.1940
     65  CA        23.2370   -1.9310    5.0600 C.3    68  GLY68       0.2014
     66  C         23.6760   -2.0640    3.6060 C.2    68  GLY68       0.2639
     67  O         23.8330   -1.0440    2.9170 O.2    68  GLY68      -0.2714
     68  N         24.1490   -3.2690    3.3000 N.am   69  SER69      -0.1949
     69  CA        24.6120   -3.6260    1.9490 C.3    69  SER69       0.1924
     70  C         23.5800   -3.1040    0.9510 C.2    69  SER69       0.2314
     71  O         22.3720   -3.3070    1.1430 O.2    69  SER69      -0.2863
     72  CB        24.8020   -5.1390    1.8380 C.3    69  SER69       0.2116
     73  OG        24.5110   -5.6210    0.5300 O.3    69  SER69      -0.2180
     74  N         21.3260   -5.8800    0.2530 N.3    72  CYS72      -0.1235
     75  CA        20.8030   -6.6710    1.3970 C.3    72  CYS72       0.1677
     76  C         21.5320   -8.0240    1.3770 C.2    72  CYS72       0.2270
     77  O         20.8980   -9.0870    1.4940 O.2    72  CYS72      -0.2867
     78  CB        19.2840   -6.9410    1.4090 C.3    72  CYS72       0.0956
     79  SG        18.0750   -5.6340    1.1120 S.3    72  CYS72      -0.0801
     80  N         24.6870   -5.8470    8.7390 N.3    78  GLY78      -0.1225
     81  CA        23.6780   -4.7800    8.8240 C.3    78  GLY78       0.1811
     82  C         24.0660   -3.8100    9.9400 C.2    78  GLY78       0.2280
     83  O         24.5980   -4.2270   10.9860 O.2    78  GLY78      -0.2866
@<TRIPOS>BOND
     1    25    26    1
     2    25    24    1
     3    74    75    1
     4    73    72    1
     5    24    23    1
     6    70    71    2
     7    70    69    1
     8    18    79    1
     9    18    17    1
    10    79    78    1
    11    23    20    1
    12    76    75    1
    13    76    77    2
    14    75    78    1
    15    72    69    1
    16    69    68    1
    17    20    19    1
    18    20    21    1
    19    19    15   am
    20    17    14    1
    21    67    66    2
    22    22    21    2
    23    21    27   am
    24    68    66   am
    25    66    65    1
    26    14    15    1
    27    14    13    1
    28    15    16    2
    29    27    28    1
    30     6     5    1
    31    28    29    1
    32    10     9    2
    33    65    64    1
    34    13     9   am
    35    64    52   am
    36     5     2    1
    37     9     8    1
    38    62    60   ar
    39    62    63   ar
    40    60    57   ar
    41     4     3    2
    42    29    30    2
    43    54    51    1
    44    54    55    1
    45     2     3    1
    46     2     1    1
    47     3     7   am
    48    52    51    1
    49    52    53    2
    50    63    61   ar
    51    51    50    1
    52    57    55   ar
    53    57    59   ar
    54    36    35    1
    55     8     7    1
    56     8    11    1
    57    55    56   ar
    58    35    32    1
    59    61    59   ar
    60    59    58   ar
    61    47    46    2
    62    31    32    1
    63    11    12    1
    64    50    46   am
    65    56    58   ar
    66    46    45    1
    67    32    33    1
    68    80    81    1
    69    81    82    1
    70    34    33    2
    71    42    41    1
    72    82    83    2
    73    45    48    1
    74    45    44    1
    75    48    49    1
    76    40    39    2
    77    44    39   am
    78    39    38    1
    79    41    38    1
    80    41    43    1
    81    38    37    1
