@<TRIPOS>MOLECULE
tmp/2chbA00.pdb
 121 120 0 0 0
SMALL
GASTEIGER

@<TRIPOS>ATOM
      1  N        -22.6450   23.3990    4.8780 N.3    11  GLU11      -0.1231
      2  CA       -22.1040   23.6780    3.5480 C.3    11  GLU11       0.1699
      3  C        -20.8940   22.8340    3.2590 C.2    11  GLU11       0.2592
      4  O        -20.3620   22.8660    2.1650 O.2    11  GLU11      -0.2718
      5  CB       -21.7060   25.1430    3.4170 C.3    11  GLU11       0.0402
      6  CG       -22.7940   26.0080    2.8840 C.3    11  GLU11       0.1161
      7  CD       -22.5820   27.4450    3.2360 C.2    11  GLU11       0.3649
      8  OE1      -21.6610   28.0800    2.6860 O.co2  11  GLU11      -0.2457
      9  OE2      -23.3390   27.9390    4.0860 O.co2  11  GLU11      -0.2457
     10  N        -20.4350   22.0770    4.2360 N.am   12  TYR12      -0.1962
     11  CA       -19.2460   21.2920    3.9930 C.3    12  TYR12       0.1771
     12  C        -19.4480   19.8040    4.0140 C.2    12  TYR12       0.2620
     13  O        -20.3830   19.2800    4.6290 O.2    12  TYR12      -0.2715
     14  CB       -18.1110   21.6950    4.9530 C.3    12  TYR12       0.0574
     15  CG       -17.6280   23.0900    4.6950 C.ar   12  TYR12      -0.0198
     16  CD1      -18.2670   24.1810    5.2880 C.ar   12  TYR12      -0.0009
     17  CD2      -16.6020   23.3350    3.7890 C.ar   12  TYR12      -0.0009
     18  CE1      -17.9140   25.4800    4.9770 C.ar   12  TYR12       0.0417
     19  CE2      -16.2380   24.6340    3.4720 C.ar   12  TYR12       0.0417
     20  CZ       -16.9080   25.7090    4.0720 C.ar   12  TYR12       0.1957
     21  OH       -16.5950   27.0180    3.7550 O.3    12  TYR12      -0.2866
     22  N        -18.5650   19.1550    3.2430 N.am   13  HIS13      -0.1959
     23  CA       -18.4830   17.7040    3.1440 C.3    13  HIS13       0.1787
     24  C        -17.7110   17.1700    4.3220 C.2    13  HIS13       0.2620
     25  O        -16.6780   17.7340    4.6980 O.2    13  HIS13      -0.2715
     26  CB       -17.8400   17.2010    1.8530 C.3    13  HIS13       0.0785
     27  CG       -18.8250   16.8260    0.8200 C.ar   13  HIS13       0.0821
     28  ND1      -18.6650   15.6530    0.1350 N.ar   13  HIS13      -0.2267
     29  CD2      -20.0140   17.3250    0.3940 C.ar   13  HIS13       0.1154
     30  CE1      -19.6800   15.4340   -0.6750 C.ar   13  HIS13       0.1986
     31  NE2      -20.5290   16.4520   -0.5360 N.ar   13  HIS13      -0.2212
     32  N        -18.2220   16.0940    4.9130 N.am   14  ASN14      -0.1972
     33  CA       -17.5680   15.4040    6.0220 C.3    14  ASN14       0.1688
     34  C        -17.5690   16.1910    7.3190 C.2    14  ASN14       0.2292
     35  O        -16.7230   15.9570    8.1830 O.2    14  ASN14      -0.2864
     36  CB       -16.1170   15.0250    5.6540 C.3    14  ASN14       0.1181
     37  CG       -16.0310   14.1850    4.3840 C.2    14  ASN14       0.2629
     38  OD1      -16.6510   13.1300    4.2770 O.2    14  ASN14      -0.2716
     39  ND2      -15.2590   14.6540    3.4210 N.am   14  ASN14      -0.0877
     40  N         -5.9460   21.4480   12.9320 N.3    51  GLU51      -0.1245
     41  CA        -4.9440   20.8070   12.0930 C.3    51  GLU51       0.1567
     42  C         -3.7040   21.6020   11.7990 C.2    51  GLU51       0.2260
     43  O         -3.7080   22.8350   11.8070 O.2    51  GLU51      -0.2867
     44  CB        -5.5450   20.4290   10.7420 C.3    51  GLU51       0.0388
     45  CG        -6.7180   19.4960   10.8130 C.3    51  GLU51       0.1160
     46  CD        -7.1040   19.0040    9.4430 C.2    51  GLU51       0.3649
     47  OE1       -7.6860   19.7900    8.6660 O.co2  51  GLU51      -0.2457
     48  OE2       -6.7890   17.8400    9.1330 O.co2  51  GLU51      -0.2457
     49  N         -1.5270   21.2170    2.5480 N.3    55  SER55      -0.1202
     50  CA        -2.1670   21.1070    1.2370 C.3    55  SER55       0.2020
     51  C         -3.6840   21.3090    1.2620 C.2    55  SER55       0.2619
     52  O         -4.2250   22.0650    0.4560 O.2    55  SER55      -0.2717
     53  CB        -1.8250   19.7560    0.5910 C.3    55  SER55       0.2103
     54  OG        -2.2300   18.6640    1.4070 O.3    55  SER55      -0.2182
     55  N         -4.3550   20.6580    2.2120 N.am   56  GLN56      -0.1965
     56  CA        -5.8070   20.7610    2.3560 C.3    56  GLN56       0.1733
     57  C         -6.2740   22.1490    2.7670 C.2    56  GLN56       0.2616
     58  O         -7.4100   22.2970    3.2050 O.2    56  GLN56      -0.2715
     59  CB        -6.3470   19.7590    3.3900 C.3    56  GLN56       0.0408
     60  CG        -5.3210   18.8840    4.1130 C.3    56  GLN56       0.0908
     61  CD        -4.5370   19.6010    5.2130 C.2    56  GLN56       0.2608
     62  OE1       -3.6410   20.4040    4.9340 O.2    56  GLN56      -0.2717
     63  NE2       -4.8520   19.2890    6.4640 N.am   56  GLN56      -0.0878
     64  N         -5.4050   23.1550    2.6590 N.am   57  HIS57      -0.1959
     65  CA        -5.7610   24.5140    3.0550 C.3    57  HIS57       0.1787
     66  C         -5.4660   25.5480    1.9920 C.2    57  HIS57       0.2620
     67  O         -4.3630   25.5920    1.4570 O.2    57  HIS57      -0.2715
     68  CB        -5.0070   24.9300    4.3280 C.3    57  HIS57       0.0785
     69  CG        -5.3440   24.1070    5.5330 C.ar   57  HIS57       0.0821
     70  ND1       -4.4500   23.2370    6.1130 N.ar   57  HIS57      -0.2267
     71  CD2       -6.4780   24.0210    6.2590 C.ar   57  HIS57       0.1154
     72  CE1       -5.0190   22.6500    7.1520 C.ar   57  HIS57       0.1986
     73  NE2       -6.2510   23.1080    7.2610 N.ar   57  HIS57      -0.2212
     74  N         -6.4440   26.4010    1.7060 N.am   58  ILE58      -0.1977
     75  CA        -6.2380   27.4640    0.7410 C.3    58  ILE58       0.1596
     76  C         -5.6000   28.6380    1.4500 C.2    58  ILE58       0.2287
     77  O         -5.6360   28.7300    2.6760 O.2    58  ILE58      -0.2864
     78  CB        -7.5320   27.8870    0.0010 C.3    58  ILE58       0.0276
     79  CG1       -8.7380   27.8840    0.9360 C.3    58  ILE58       0.0022
     80  CG2       -7.7680   26.9700   -1.1880 C.3    58  ILE58       0.0022
     81  CD1      -10.0270   28.2730    0.2480 C.3    58  ILE58       0.0001
     82  N         -7.3240   30.3590    4.3550 N.3    61  GLN61      -0.1245
     83  CA        -7.5030   29.6790    5.6170 C.3    61  GLN61       0.1566
     84  C         -6.3070   29.8520    6.5360 C.2    61  GLN61       0.2260
     85  O         -6.3940   29.5720    7.7290 O.2    61  GLN61      -0.2867
     86  CB        -7.7210   28.2050    5.3880 C.3    61  GLN61       0.0367
     87  CG        -9.0450   27.8950    4.8250 C.3    61  GLN61       0.0905
     88  CD        -9.2040   26.4270    4.6780 C.2    61  GLN61       0.2608
     89  OE1       -8.6190   25.8190    3.7820 O.2    61  GLN61      -0.2717
     90  NE2       -9.9310   25.8190    5.5940 N.am   61  GLN61      -0.0878
     91  N        -14.7640   18.5130   11.2260 N.3    88  TRP88      -0.1241
     92  CA       -14.5820   17.5830   10.1130 C.3    88  TRP88       0.1605
     93  C        -14.3560   16.2190   10.7750 C.2    88  TRP88       0.2264
     94  O        -13.5230   16.0810   11.6820 O.2    88  TRP88      -0.2867
     95  CB       -13.3700   17.9660    9.2590 C.3    88  TRP88       0.0550
     96  CG       -13.6440   19.0180    8.2190 C.ar   88  TRP88       0.0003
     97  CD1      -14.4370   18.8850    7.1080 C.ar   88  TRP88       0.0946
     98  CD2      -13.1090   20.3540    8.1520 C.ar   88  TRP88       0.0152
     99  NE1      -14.4230   20.0460    6.3650 N.ar   88  TRP88      -0.2442
    100  CE2      -13.6130   20.9620    6.9920 C.ar   88  TRP88       0.0810
    101  CE3      -12.2380   21.0880    8.9910 C.ar   88  TRP88       0.0012
    102  CZ2      -13.2910   22.2810    6.6210 C.ar   88  TRP88       0.0191
    103  CZ3      -11.9120   22.4100    8.6220 C.ar   88  TRP88       0.0001
    104  CH2      -12.4420   22.9860    7.4500 C.ar   88  TRP88       0.0015
    105  N        -13.4910   13.3340    9.1400 N.3    90  ASN90      -0.1225
    106  CA       -12.6300   12.4560    8.3570 C.3    90  ASN90       0.1785
    107  C        -11.1970   12.5500    8.9050 C.2    90  ASN90       0.2597
    108  O        -10.2270   12.1970    8.2340 O.2    90  ASN90      -0.2718
    109  CB       -12.6830   12.8320    6.8680 C.3    90  ASN90       0.1169
    110  CG       -12.2550   14.2540    6.6050 C.2    90  ASN90       0.2627
    111  OD1      -12.5990   15.1690    7.3510 O.2    90  ASN90      -0.2716
    112  ND2      -11.5120   14.4580    5.5270 N.am   90  ASN90      -0.0877
    113  N        -11.0820   13.0660   10.1230 N.am   91  LYS91      -0.1980
    114  CA        -9.8030   13.2210   10.8090 C.3    91  LYS91       0.1596
    115  C         -9.9390   12.7560   12.2500 C.2    91  LYS91       0.2287
    116  O        -11.0600   12.6550   12.7780 O.2    91  LYS91      -0.2864
    117  CB        -9.3460   14.6750   10.7960 C.3    91  LYS91       0.0298
    118  CG        -8.2390   14.9390    9.8160 C.3    91  LYS91       0.0038
    119  CD        -8.7760   15.1500    8.4240 C.3    91  LYS91       0.0206
    120  CE        -7.6450   15.1790    7.4190 C.3    91  LYS91       0.1093
    121  NZ        -7.8490   16.2630    6.4230 N.3    91  LYS91      -0.1314
@<TRIPOS>BOND
     1    80    78    1
     2    30    31   ar
     3    30    28   ar
     4    31    29   ar
     5    78    75    1
     6    78    79    1
     7    28    27   ar
     8    81    79    1
     9    29    27   ar
    10    52    51    2
    11    53    50    1
    12    53    54    1
    13    75    76    1
    14    75    74    1
    15    27    26    1
    16    50    51    1
    17    50    49    1
    18    51    55   am
    19    76    77    2
    20    67    66    2
    21    74    66   am
    22    26    23    1
    23    66    65    1
    24     4     3    2
    25    55    56    1
    26    56    57    1
    27    56    59    1
    28    64    57   am
    29    64    65    1
    30     8     7   ar
    31    57    58    2
    32     6     7    1
    33     6     5    1
    34    65    68    1
    35    23    22    1
    36    23    24    1
    37     7     9   ar
    38    22    12   am
    39     3     2    1
    40     3    10   am
    41    59    60    1
    42     5     2    1
    43    39    37   am
    44    19    17   ar
    45    19    20   ar
    46     2     1    1
    47    21    20    1
    48    89    88    2
    49    17    15   ar
    50    11    12    1
    51    11    10    1
    52    11    14    1
    53    12    13    2
    54    20    18   ar
    55    60    61    1
    56    38    37    2
    57    24    25    2
    58    24    32   am
    59    68    69    1
    60    82    83    1
    61    37    36    1
    62    88    87    1
    63    88    90   am
    64    15    14    1
    65    15    16   ar
    66    87    86    1
    67    32    33    1
    68    62    61    2
    69    18    16   ar
    70    61    63   am
    71    86    83    1
    72   112   110   am
    73    69    70   ar
    74    69    71   ar
    75    83    84    1
    76    36    33    1
    77    33    34    1
    78    70    72   ar
    79    71    73   ar
    80    99   100   ar
    81    99    97   ar
    82   121   120    1
    83    84    85    2
    84   110   109    1
    85   110   111    2
    86   102   100   ar
    87   102   104   ar
    88   109   106    1
    89   100    98   ar
    90    97    96   ar
    91    72    73   ar
    92    34    35    2
    93   120   119    1
    94   104   103   ar
    95    98    96   ar
    96    98   101   ar
    97    96    95    1
    98   108   107    2
    99   106   107    1
   100   106   105    1
   101   119   118    1
   102   103   101   ar
   103    47    46   ar
   104   107   113   am
   105    48    46   ar
   106    95    92    1
   107    46    45    1
   108   118   117    1
   109    92    93    1
   110    92    91    1
   111   113   114    1
   112    44    45    1
   113    44    41    1
   114    93    94    2
   115   117   114    1
   116   114   115    1
   117    42    43    2
   118    42    41    1
   119    41    40    1
   120   115   116    2
