@<TRIPOS>MOLECULE
tmp/2chhA00.pdb
 85 80 0 0 0
SMALL
GASTEIGER

@<TRIPOS>ATOM
      1  N         -7.2060   17.3630   10.1830 N.3    21  ASN21      -0.1225
      2  CA        -8.6670   17.1320   10.1440 C.3    21  ASN21       0.1785
      3  C         -9.1120   17.0120   11.5850 C.2    21  ASN21       0.2597
      4  O         -9.3590   15.8960   12.0940 O.2    21  ASN21      -0.2718
      5  CB        -9.0520   15.8810    9.3640 C.3    21  ASN21       0.1169
      6  CG        -8.7330   15.9910    7.9250 C.2    21  ASN21       0.2627
      7  OD1       -9.5100   16.5440    7.1540 O.2    21  ASN21      -0.2716
      8  ND2       -7.5770   15.4570    7.5280 N.am   21  ASN21      -0.0877
      9  N         -9.1380   18.1060   12.3000 N.am   22  ALA22      -0.1966
     10  CA        -9.2210   18.0770   13.7590 C.3    22  ALA22       0.1728
     11  C         -9.6390   19.4270   14.2700 C.2    22  ALA22       0.2616
     12  O         -9.2640   20.4690   13.7260 O.2    22  ALA22      -0.2715
     13  CB        -7.8580   17.7470   14.3530 C.3    22  ALA22       0.0334
     14  N        -10.3860   19.4120   15.3770 N.am   23  ALA23      -0.1963
     15  CA       -10.6760   20.6460   16.1110 C.3    23  ALA23       0.1728
     16  C         -9.4800   21.1080   16.9120 C.2    23  ALA23       0.2616
     17  O         -9.2730   22.3030   17.1230 O.2    23  ALA23      -0.2715
     18  CB       -11.8700   20.4520   17.0000 C.3    23  ALA23       0.0334
     19  N         -8.6670   20.1790   17.4090 N.am   24  ASN24      -0.1972
     20  CA        -7.5000   20.5270   18.2180 C.3    24  ASN24       0.1688
     21  C         -6.3060   20.8460   17.3460 C.2    24  ASN24       0.2292
     22  O         -6.1350   20.2810   16.2490 O.2    24  ASN24      -0.2864
     23  CB        -7.2000   19.4500   19.2070 C.3    24  ASN24       0.1181
     24  CG        -8.2680   19.4080   20.3530 C.2    24  ASN24       0.2629
     25  OD1       -8.8940   20.4730   20.6200 O.2    24  ASN24      -0.2716
     26  ND2       -8.3780   18.3290   21.0380 N.am   24  ASN24      -0.0877
     27  N        -10.9890   21.1490   10.0920 N.3    45  THR45      -0.1218
     28  CA       -11.6230   19.8420    9.8850 C.3    45  THR45       0.1862
     29  C        -11.8150   19.4610    8.4140 C.2    45  THR45       0.2287
     30  O        -12.3580   18.4040    8.1550 O.2    45  THR45      -0.2866
     31  CB       -12.9260   19.7420   10.6450 C.3    45  THR45       0.1770
     32  OG1      -13.7600   20.8200   10.2190 O.3    45  THR45      -0.2211
     33  CG2      -12.7030   19.8470   12.1380 C.3    45  THR45       0.0375
     34  N         -4.5130    9.7260   15.6170 N.3    94  GLU94      -0.1231
     35  CA        -5.7330    9.8920   16.3720 C.3    94  GLU94       0.1699
     36  C         -5.4020   10.5980   17.6780 C.2    94  GLU94       0.2592
     37  O         -4.5840   10.1140   18.4730 O.2    94  GLU94      -0.2718
     38  CB        -6.3950    8.5590   16.6420 C.3    94  GLU94       0.0402
     39  CG        -7.6850    8.6660   17.4640 C.3    94  GLU94       0.1161
     40  CD        -8.6710    9.6140   16.8350 C.2    94  GLU94       0.3649
     41  OE1       -8.9500    9.5100   15.6200 O.co2  94  GLU94      -0.2457
     42  OE2       -9.1770   10.5290   17.5590 O.co2  94  GLU94      -0.2457
     43  N         -6.0660   11.7270   17.9080 N.am   95  ASP95      -0.1960
     44  CA        -5.8680   12.5380   19.1000 C.3    95  ASP95       0.1840
     45  C         -6.9670   12.3720   20.1260 C.2    95  ASP95       0.2623
     46  O         -6.8950   13.0050   21.1960 O.2    95  ASP95      -0.2715
     47  CB        -5.7120   14.0230   18.7160 C.3    95  ASP95       0.1450
     48  CG        -6.9730   14.6580   18.2010 C.2    95  ASP95       0.3671
     49  OD1       -8.0610   14.0590   18.3700 O.co2  95  ASP95      -0.2456
     50  OD2       -6.8790   15.7740   17.6400 O.co2  95  ASP95      -0.2456
     51  N         -7.9320   11.5060   19.8790 N.am   96  GLY96      -0.1940
     52  CA        -9.1400   11.4430   20.6750 C.3    96  GLY96       0.2014
     53  C         -9.7470   10.0930   20.6960 C.2    96  GLY96       0.2640
     54  O         -9.0380    9.0960   20.8940 O.2    96  GLY96      -0.2714
     55  N        -11.0580   10.0280   20.5570 N.am   97  THR97      -0.1936
     56  CA       -11.8460    8.8450   20.7610 C.3    97  THR97       0.2028
     57  C        -12.6300    8.3830   19.5440 C.2    97  THR97       0.2642
     58  O        -13.1650    7.2880   19.5840 O.2    97  THR97      -0.2714
     59  CB       -12.8170    9.0360   21.9260 C.3    97  THR97       0.1808
     60  OG1      -13.6530   10.1410   21.5860 O.3    97  THR97      -0.2208
     61  CG2      -12.1020    9.2860   23.2390 C.3    97  THR97       0.0379
     62  N        -12.7260    9.1660   18.4770 N.am   98  ASP98      -0.1971
     63  CA       -13.5680    8.7770   17.3630 C.3    98  ASP98       0.1709
     64  C        -12.8630    7.8300   16.3890 C.2    98  ASP98       0.2293
     65  O        -13.5110    7.2540   15.5400 O.2    98  ASP98      -0.2864
     66  CB       -14.1720    9.9600   16.6280 C.3    98  ASP98       0.1436
     67  CG       -13.1770   10.8190   15.9010 C.2    98  ASP98       0.3671
     68  OD1      -11.9600   10.6550   16.1050 O.co2  98  ASP98      -0.2456
     69  OD2      -13.6270   11.7180   15.1480 O.co2  98  ASP98      -0.2456
     70  N        -10.9320    8.1830   13.7970 N.3   100  ASP100     -0.1239
     71  CA       -10.9060    8.4690   12.3690 C.3   100  ASP100      0.1674
     72  C         -9.4680    8.5240   11.8630 C.2   100  ASP100      0.2266
     73  O         -9.2570    8.3970   10.6430 O.2   100  ASP100     -0.2867
     74  CB       -11.7380    9.7130   12.0260 C.3   100  ASP100      0.1410
     75  CG       -11.2940   11.0480   12.5960 C.2   100  ASP100      0.3668
     76  OD1      -10.3520   11.0690   13.4190 O.co2 100  ASP100     -0.2456
     77  OD2      -11.9180   12.0540   12.2220 O.co2 100  ASP100     -0.2456
     78  N         -6.4430   13.0270   12.1400 N.3   103  ASP103     -0.1239
     79  CA        -6.4010   14.3020   12.8460 C.3   103  ASP103      0.1674
     80  C         -5.2080   15.1380   12.4310 C.2   103  ASP103      0.2266
     81  O         -5.3260   16.3340   12.1850 O.2   103  ASP103     -0.2867
     82  CB        -6.4590   14.0470   14.3430 C.3   103  ASP103      0.1410
     83  CG        -7.7170   13.3460   14.7640 C.2   103  ASP103      0.3668
     84  OD1       -8.8150   13.6260   14.2130 O.co2 103  ASP103     -0.2456
     85  OD2       -7.6700   12.4890   15.6860 O.co2 103  ASP103     -0.2456
@<TRIPOS>BOND
     1     7     6    2
     2     8     6   am
     3     6     5    1
     4    30    29    2
     5    29    28    1
     6     5     2    1
     7    28    27    1
     8    28    31    1
     9     2     1    1
    10     2     3    1
    11    32    31    1
    12    73    72    2
    13    31    33    1
    14     3     4    2
    15     3     9   am
    16    72    71    1
    17    74    71    1
    18    74    75    1
    19    78    79    1
    20    81    80    2
    21    77    75   ar
    22     9    10    1
    23    71    70    1
    24    80    79    1
    25    75    76   ar
    26    79    82    1
    27    12    11    2
    28    10    11    1
    29    10    13    1
    30    84    83   ar
    31    11    14   am
    32    82    83    1
    33    83    85   ar
    34    69    67   ar
    35    14    15    1
    36    65    64    2
    37    34    35    1
    38    41    40   ar
    39    67    68   ar
    40    67    66    1
    41    15    16    1
    42    15    18    1
    43    22    21    2
    44    35    38    1
    45    35    36    1
    46    64    63    1
    47    66    63    1
    48    38    39    1
    49    40    39    1
    50    40    42   ar
    51    16    17    2
    52    16    19   am
    53    21    20    1
    54    63    62    1
    55    19    20    1
    56    50    48   ar
    57    36    43   am
    58    36    37    2
    59    43    44    1
    60    48    49   ar
    61    48    47    1
    62    20    23    1
    63    62    57   am
    64    47    44    1
    65    44    45    1
    66    23    24    1
    67    57    58    2
    68    57    56    1
    69    51    45   am
    70    51    52    1
    71    45    46    2
    72    24    25    2
    73    24    26   am
    74    55    53   am
    75    55    56    1
    76    52    53    1
    77    53    54    2
    78    56    59    1
    79    60    59    1
    80    59    61    1
