@<TRIPOS>MOLECULE
tmp/2chlA00.pdb
 155 148 0 0 0
SMALL
GASTEIGER

@<TRIPOS>ATOM
      1  N         13.3790   26.3750   26.2200 N.3    14  ILE14      -0.1245
      2  CA        11.9330   26.3350   26.2800 C.3    14  ILE14       0.1561
      3  C         11.3490   26.9360   24.9990 C.2    14  ILE14       0.2260
      4  O         10.2000   27.3930   24.9700 O.2    14  ILE14      -0.2867
      5  CB        11.3900   26.9920   27.5810 C.3    14  ILE14       0.0252
      6  CG1       11.6520   28.5080   27.6290 C.3    14  ILE14       0.0019
      7  CG2       11.9720   26.2650   28.7740 C.3    14  ILE14       0.0019
      8  CD1       11.3190   29.1360   28.9780 C.3    14  ILE14       0.0001
      9  N         15.0840   33.9140   15.8670 N.3    19  PHE19      -0.1241
     10  CA        15.5680   34.8270   16.9100 C.3    19  PHE19       0.1605
     11  C         16.7490   34.3030   17.7340 C.2    19  PHE19       0.2264
     12  O         17.4810   35.0900   18.3320 O.2    19  PHE19      -0.2867
     13  CB        14.4250   35.2080   17.8530 C.3    19  PHE19       0.0534
     14  CG        14.0480   34.1310   18.8390 C.ar   19  PHE19      -0.0203
     15  CD1       12.9910   33.2490   18.5630 C.ar   19  PHE19      -0.0042
     16  CD2       14.7340   34.0110   20.0480 C.ar   19  PHE19      -0.0042
     17  CE1       12.6320   32.2530   19.4660 C.ar   19  PHE19      -0.0003
     18  CE2       14.3810   33.0310   20.9560 C.ar   19  PHE19      -0.0003
     19  CZ        13.3410   32.1370   20.6710 C.ar   19  PHE19      -0.0000
     20  N         15.1000   30.5120   23.3890 N.3    22  LEU22      -0.1245
     21  CA        14.4920   30.8830   24.6490 C.3    22  LEU22       0.1561
     22  C         14.8430   29.7900   25.6460 C.2    22  LEU22       0.2260
     23  O         14.7200   28.5790   25.3590 O.2    22  LEU22      -0.2867
     24  CB        12.9950   31.0660   24.5150 C.3    22  LEU22       0.0270
     25  CG        12.3060   31.5920   25.7860 C.3    22  LEU22       0.0019
     26  CD1       12.6440   33.1070   26.0400 C.3    22  LEU22       0.0001
     27  CD2       10.8060   31.2890   25.6460 C.3    22  LEU22       0.0001
     28  N         12.6300   34.3160   31.9160 N.3    35  ALA35      -0.1245
     29  CA        12.8880   33.8760   30.5540 C.3    35  ALA35       0.1562
     30  C         14.1930   34.5300   30.0590 C.2    35  ALA35       0.2260
     31  O         14.5050   35.6660   30.3960 O.2    35  ALA35      -0.2867
     32  CB        11.6920   34.2200   29.6340 C.3    35  ALA35       0.0290
     33  N         16.2460   35.1930   26.6150 N.3    37  LYS37      -0.1245
     34  CA        16.2670   35.1990   25.1840 C.3    37  LYS37       0.1561
     35  C         17.7250   35.3860   24.7190 C.2    37  LYS37       0.2260
     36  O         18.3760   36.3690   25.0680 O.2    37  LYS37      -0.2867
     37  CB        15.3610   36.3170   24.6810 C.3    37  LYS37       0.0271
     38  CG        14.8360   36.1020   23.3010 C.3    37  LYS37       0.0035
     39  CD        14.0570   37.3000   22.8590 C.3    37  LYS37       0.0206
     40  CE        13.3510   37.0330   21.5760 C.3    37  LYS37       0.1093
     41  NZ        12.9990   38.2950   20.8980 N.3    37  LYS37      -0.1314
     42  N         14.1760   38.4370   30.8920 N.3    81  LEU81      -0.1231
     43  CA        12.9070   39.1020   31.0500 C.3    81  LEU81       0.1693
     44  C         11.9910   38.2000   31.8170 C.2    81  LEU81       0.2592
     45  O         12.3060   37.0390   32.0820 O.2    81  LEU81      -0.2718
     46  CB        12.3220   39.5220   29.6790 C.3    81  LEU81       0.0284
     47  CG        11.8390   38.4900   28.6720 C.3    81  LEU81       0.0019
     48  CD1       11.1610   39.2290   27.4930 C.3    81  LEU81       0.0001
     49  CD2       12.9500   37.5730   28.2010 C.3    81  LEU81       0.0001
     50  N         10.8620   38.7750   32.1750 N.am   82  GLU82      -0.1966
     51  CA         9.7610   38.0870   32.8150 C.3    82  GLU82       0.1733
     52  C          9.3300   36.8030   32.0860 C.2    82  GLU82       0.2616
     53  O          9.0710   36.8060   30.8520 O.2    82  GLU82      -0.2715
     54  CB         8.5920   39.0460   32.9100 C.3    82  GLU82       0.0429
     55  CG         7.5350   38.6540   33.8820 C.3    82  GLU82       0.1163
     56  CD         6.5140   39.7400   34.1170 C.2    82  GLU82       0.3649
     57  OE1        6.5580   40.8020   33.4530 O.co2  82  GLU82      -0.2457
     58  OE2        5.6450   39.5050   34.9800 O.co2  82  GLU82      -0.2457
     59  N          9.3060   35.7190   32.8750 N.am   83  LEU83      -0.1963
     60  CA         8.7310   34.4660   32.4690 C.3    83  LEU83       0.1728
     61  C          7.2310   34.6840   32.4720 C.2    83  LEU83       0.2616
     62  O          6.6110   35.0580   33.4700 O.2    83  LEU83      -0.2715
     63  CB         9.1300   33.2740   33.3530 C.3    83  LEU83       0.0311
     64  CG         8.6400   31.8860   32.8870 C.3    83  LEU83       0.0022
     65  CD1        9.2550   31.5660   31.5010 C.3    83  LEU83       0.0001
     66  CD2        8.9670   30.8090   33.8920 C.3    83  LEU83       0.0001
     67  N          6.6680   34.4900   31.3040 N.am   84  LEU84      -0.1963
     68  CA         5.2410   34.6310   31.1140 C.3    84  LEU84       0.1728
     69  C          4.6740   33.2270   30.8630 C.2    84  LEU84       0.2617
     70  O          5.3920   32.2250   30.9370 O.2    84  LEU84      -0.2715
     71  CB         4.9530   35.6370   29.9920 C.3    84  LEU84       0.0311
     72  CG         5.2340   37.1130   30.3620 C.3    84  LEU84       0.0022
     73  CD1        4.9350   38.0270   29.1920 C.3    84  LEU84       0.0001
     74  CD2        4.4520   37.5240   31.6460 C.3    84  LEU84       0.0001
     75  N          3.3760   33.1580   30.6210 N.am   85  GLY85      -0.1941
     76  CA         2.7290   31.9230   30.3370 C.3    85  GLY85       0.1998
     77  C          2.6450   31.6740   28.8580 C.2    85  GLY85       0.2480
     78  O          3.3240   32.3280   28.0420 O.2    85  GLY85      -0.2729
     79  N          1.7600   30.7430   28.4920 N.am   86  PRO86      -0.2726
     80  CA         1.5110   30.4040   27.1090 C.3    86  PRO86       0.1402
     81  C          1.0510   31.5690   26.2450 C.2    86  PRO86       0.2269
     82  O          0.3770   32.4980   26.7020 O.2    86  PRO86      -0.2865
     83  CB         0.3900   29.3600   27.2100 C.3    86  PRO86       0.0296
     84  CG         0.4960   28.8390   28.5680 C.3    86  PRO86       0.0237
     85  CD         0.9140   29.9580   29.3940 C.3    86  PRO86       0.0939
     86  N         -0.7500   28.9960   21.3610 N.3    90  ASP90      -0.1239
     87  CA        -0.7460   27.7630   22.1560 C.3    90  ASP90       0.1674
     88  C         -2.0790   27.5670   22.8790 C.2    90  ASP90       0.2266
     89  O         -2.5980   26.4600   22.9580 O.2    90  ASP90      -0.2867
     90  CB         0.3860   27.7850   23.1980 C.3    90  ASP90       0.1410
     91  CG         1.7420   27.7020   22.5800 C.2    90  ASP90       0.3668
     92  OD1        1.8820   27.1520   21.4650 O.co2  90  ASP90      -0.2456
     93  OD2        2.6730   28.2140   23.2100 O.co2  90  ASP90      -0.2456
     94  N          1.2900   34.2920   18.6360 N.3   131  GLU131     -0.1231
     95  CA         2.4960   33.8420   19.3190 C.3   131  GLU131      0.1699
     96  C          3.1970   34.9170   20.1600 C.2   131  GLU131      0.2592
     97  O          3.9950   34.5750   21.0190 O.2   131  GLU131     -0.2718
     98  CB         3.5060   33.2860   18.2940 C.3   131  GLU131      0.0402
     99  CG         3.0640   32.0120   17.5930 C.3   131  GLU131      0.1161
    100  CD         2.2880   32.2240   16.2800 C.2   131  GLU131      0.3649
    101  OE1        2.1780   31.2260   15.5440 O.co2 131  GLU131     -0.2457
    102  OE2        1.7810   33.3420   15.9820 O.co2 131  GLU131     -0.2457
    103  N          2.8960   36.1910   19.9100 N.am  132  ASN132     -0.1974
    104  CA         3.5350   37.3110   20.5850 C.3   132  ASN132      0.1688
    105  C          2.6710   37.9070   21.6900 C.2   132  ASN132      0.2292
    106  O          2.9710   38.9710   22.2260 O.2   132  ASN132     -0.2864
    107  CB         3.9150   38.3630   19.5520 C.3   132  ASN132      0.1181
    108  CG         5.1230   37.9560   18.7380 C.2   132  ASN132      0.2629
    109  OD1        5.7720   36.9360   19.0200 O.2   132  ASN132     -0.2716
    110  ND2        5.4330   38.7400   17.7150 N.am  132  ASN132     -0.0877
    111  N          1.0940   36.7360   25.2160 N.3   134  LEU134     -0.1245
    112  CA         1.2040   35.7120   26.2080 C.3   134  LEU134      0.1561
    113  C          0.3820   36.0980   27.4330 C.2   134  LEU134      0.2260
    114  O          0.3680   37.2440   27.8710 O.2   134  LEU134     -0.2867
    115  CB         2.6800   35.3870   26.6220 C.3   134  LEU134      0.0270
    116  CG         3.8590   35.3750   25.6370 C.3   134  LEU134      0.0019
    117  CD1        5.1070   34.6500   26.2370 C.3   134  LEU134      0.0001
    118  CD2        3.5330   34.8260   24.2820 C.3   134  LEU134      0.0001
    119  N          4.6500   40.8230   23.5920 N.3   149  ILE149     -0.1231
    120  CA         6.0390   40.4170   23.6800 C.3   149  ILE149      0.1692
    121  C          6.6470   40.4550   22.2880 C.2   149  ILE149      0.2592
    122  O          5.9260   40.4370   21.2810 O.2   149  ILE149     -0.2718
    123  CB         6.1830   39.0070   24.3950 C.3   149  ILE149      0.0266
    124  CG1        7.4950   38.9100   25.1520 C.3   149  ILE149      0.0019
    125  CG2        6.1080   37.8520   23.4080 C.3   149  ILE149      0.0020
    126  CD1        7.4230   38.1400   26.4420 C.3   149  ILE149      0.0001
    127  N          7.9770   40.5530   22.2680 N.am  150  ASP150     -0.1974
    128  CA         8.7750   40.5440   21.0580 C.3   150  ASP150      0.1709
    129  C          8.6970   41.8680   20.2660 C.2   150  ASP150      0.2293
    130  O          7.8960   42.0560   19.3510 O.2   150  ASP150     -0.2864
    131  CB         8.4340   39.3640   20.1600 C.3   150  ASP150      0.1436
    132  CG         9.6070   38.9570   19.3050 C.2   150  ASP150      0.3671
    133  OD1       10.4690   39.8380   19.0160 O.co2 150  ASP150     -0.2456
    134  OD2        9.6690   37.7640   18.9530 O.co2 150  ASP150     -0.2456
    135  N          0.4320   24.5790   29.2670 N.3   296  PRO296     -0.2102
    136  CA         1.8290   24.1360   29.2090 C.3   296  PRO296      0.1504
    137  C          2.8030   25.0780   29.9730 C.2   296  PRO296      0.2576
    138  O          2.7200   26.3140   29.8470 O.2   296  PRO296     -0.2718
    139  CB         2.1240   24.0750   27.7010 C.3   296  PRO296      0.0282
    140  CG         1.1040   24.9430   27.0480 C.3   296  PRO296      0.0208
    141  CD        -0.0740   25.0550   27.9630 C.3   296  PRO296      0.0893
    142  N          3.6940   24.4760   30.7650 N.am  297  THR297     -0.1940
    143  CA         4.6470   25.2070   31.6010 C.3   297  THR297      0.2013
    144  C          6.0830   24.6320   31.5270 C.2   297  THR297      0.2484
    145  O          6.2690   23.4160   31.5910 O.2   297  THR297     -0.2729
    146  CB         4.1910   25.2270   33.0860 C.3   297  THR297      0.1807
    147  OG1        5.0260   26.1290   33.8230 O.3   297  THR297     -0.2208
    148  CG2        4.2590   23.8170   33.7280 C.3   297  THR297      0.0379
    149  N          7.0990   25.5120   31.3950 N.am  298  PRO298     -0.2726
    150  CA         8.5100   25.0720   31.4010 C.3   298  PRO298      0.1402
    151  C          9.0540   24.5890   32.7540 C.2   298  PRO298      0.2269
    152  O          8.4610   24.8500   33.8020 O.2   298  PRO298     -0.2865
    153  CB         9.2730   26.3160   30.9240 C.3   298  PRO298      0.0296
    154  CG         8.3620   27.4740   31.1320 C.3   298  PRO298      0.0237
    155  CD         6.9570   26.9700   31.1840 C.3   298  PRO298      0.0939
@<TRIPOS>BOND
     1   101   100   ar
     2     9    10    1
     3   102   100   ar
     4   100    99    1
     5    10    11    1
     6    10    13    1
     7    99    98    1
     8   110   108   am
     9    11    12    2
    10    13    14    1
    11    98    95    1
    12    15    14   ar
    13    15    17   ar
    14    94    95    1
    15   108   109    2
    16   108   107    1
    17    14    16   ar
    18   134   132   ar
    19   133   132   ar
    20   132   131    1
    21    95    96    1
    22   130   129    2
    23    17    19   ar
    24   107   104    1
    25   103    96   am
    26   103   104    1
    27    16    18   ar
    28    96    97    2
    29   131   128    1
    30   129   128    1
    31   104   105    1
    32    19    18   ar
    33    41    40    1
    34   128   127    1
    35   122   121    2
    36    86    87    1
    37    92    91   ar
    38    40    39    1
    39   105   106    2
    40    87    88    1
    41    87    90    1
    42   127   121   am
    43   121   120    1
    44    91    90    1
    45    91    93   ar
    46    39    38    1
    47    88    89    2
    48    38    37    1
    49    20    21    1
    50   125   123    1
    51   119   120    1
    52   120   123    1
    53   118   116    1
    54   123   124    1
    55    24    21    1
    56    24    25    1
    57    21    22    1
    58    37    34    1
    59    35    36    2
    60    35    34    1
    61     4     3    2
    62     3     2    1
    63   124   126    1
    64    34    33    1
    65   111   112    1
    66    23    22    2
    67   116   117    1
    68   116   115    1
    69    27    25    1
    70    25    26    1
    71   112   115    1
    72   112   113    1
    73     1     2    1
    74    81    82    2
    75    81    80    1
    76     2     5    1
    77   140   139    1
    78   140   141    1
    79    80    83    1
    80    80    79    1
    81    83    84    1
    82   113   114    2
    83    48    47    1
    84     5     6    1
    85     5     7    1
    86     6     8    1
    87   139   136    1
    88   141   135    1
    89    78    77    2
    90    49    47    1
    91    79    77   am
    92    79    85    1
    93    84    85    1
    94    47    46    1
    95    77    76    1
    96    73    72    1
    97   136   135    1
    98   136   137    1
    99    32    29    1
   100    46    43    1
   101   138   137    2
   102   137   142   am
   103    71    72    1
   104    71    68    1
   105    30    31    2
   106    30    29    1
   107    76    75    1
   108    72    74    1
   109    29    28    1
   110    75    69   am
   111   142   143    1
   112    53    52    2
   113    69    70    2
   114    69    68    1
   115    42    43    1
   116   153   154    1
   117   153   150    1
   118    43    44    1
   119    68    67    1
   120   154   155    1
   121   155   149    1
   122    67    61   am
   123   149   150    1
   124   149   144   am
   125   150   151    1
   126    65    64    1
   127   144   145    2
   128   144   143    1
   129   143   146    1
   130    44    45    2
   131    44    50   am
   132    52    51    1
   133    52    59   am
   134    50    51    1
   135    60    61    1
   136    60    59    1
   137    60    63    1
   138    61    62    2
   139   151   152    2
   140    51    54    1
   141    64    63    1
   142    64    66    1
   143    54    55    1
   144   146   148    1
   145   146   147    1
   146    57    56   ar
   147    55    56    1
   148    56    58   ar
