@<TRIPOS>MOLECULE
tmp/2chmA00.pdb
 162 152 0 0 0
SMALL
GASTEIGER

@<TRIPOS>ATOM
      1  N         19.1350    6.0670   15.1450 N.3    76  TYR76      -0.1241
      2  CA        17.9240    5.2570   15.1510 C.3    76  TYR76       0.1605
      3  C         17.1250    5.3330   16.4480 C.2    76  TYR76       0.2264
      4  O         15.9200    5.6010   16.4280 O.2    76  TYR76      -0.2867
      5  CB        18.2930    3.8000   14.8430 C.3    76  TYR76       0.0534
      6  CG        17.1550    2.8050   14.9530 C.ar   76  TYR76      -0.0201
      7  CD1       17.2470    1.7200   15.8150 C.ar   76  TYR76      -0.0009
      8  CD2       16.0180    2.9220   14.1630 C.ar   76  TYR76      -0.0009
      9  CE1       16.2390    0.7730   15.8850 C.ar   76  TYR76       0.0417
     10  CE2       15.0040    1.9770   14.2240 C.ar   76  TYR76       0.0417
     11  CZ        15.1230    0.9060   15.0840 C.ar   76  TYR76       0.1957
     12  OH        14.1400   -0.0550   15.1320 O.3    76  TYR76      -0.2866
     13  N         16.3840   -7.3350   23.5880 N.3   190  LEU190     -0.1245
     14  CA        16.3030   -8.5000   22.7100 C.3   190  LEU190      0.1561
     15  C         16.8270   -9.7720   23.3760 C.2   190  LEU190      0.2260
     16  O         16.4320  -10.8790   23.0060 O.2   190  LEU190     -0.2867
     17  CB        17.0680   -8.2540   21.4060 C.3   190  LEU190      0.0270
     18  CG        16.6710   -9.2270   20.2900 C.3   190  LEU190      0.0019
     19  CD1       15.3140   -8.8210   19.7440 C.3   190  LEU190      0.0001
     20  CD2       17.7120   -9.2190   19.1780 C.3   190  LEU190      0.0001
     21  N         14.8440  -13.3820   23.2100 N.3   194  ILE194     -0.1245
     22  CA        15.4420  -14.6440   22.7900 C.3   194  ILE194      0.1561
     23  C         15.3400  -15.6850   23.8990 C.2   194  ILE194      0.2260
     24  O         15.1190  -16.8680   23.6350 O.2   194  ILE194     -0.2867
     25  CB        16.9260  -14.4540   22.4080 C.3   194  ILE194      0.0252
     26  CG1       17.0220  -13.6420   21.1150 C.3   194  ILE194      0.0019
     27  CG2       17.6030  -15.8070   22.2470 C.3   194  ILE194      0.0019
     28  CD1       18.4390  -13.2890   20.7120 C.3   194  ILE194      0.0001
     29  N         10.3510   -3.9460   16.8010 N.3   230  LEU230     -0.1245
     30  CA        10.9830   -4.3310   15.5400 C.3   230  LEU230      0.1561
     31  C         10.1540   -3.9910   14.3090 C.2   230  LEU230      0.2260
     32  O         10.5740   -4.2760   13.1840 O.2   230  LEU230     -0.2867
     33  CB        11.2510   -5.8400   15.5370 C.3   230  LEU230      0.0270
     34  CG        12.1810   -6.3790   16.6210 C.3   230  LEU230      0.0019
     35  CD1       12.2700   -7.8990   16.5280 C.3   230  LEU230      0.0001
     36  CD2       13.5460   -5.7500   16.4560 C.3   230  LEU230      0.0001
     37  N          9.7180   -1.7360   12.1640 N.3   232  ALA232     -0.1231
     38  CA        10.2220   -1.1580   10.9210 C.3   232  ALA232      0.1694
     39  C         10.4980   -2.2690    9.9060 C.2   232  ALA232      0.2591
     40  O         10.4450   -2.0480    8.6920 O.2   232  ALA232     -0.2718
     41  CB        11.5010   -0.3540   11.1820 C.3   232  ALA232      0.0304
     42  N         10.7840   -3.4660   10.4110 N.am  233  ILE233     -0.1980
     43  CA        11.0860   -4.6120    9.5560 C.3   233  ILE233      0.1595
     44  C          9.8560   -5.1210    8.7980 C.2   233  ILE233      0.2287
     45  O          9.9700   -5.9860    7.9260 O.2   233  ILE233     -0.2864
     46  CB        11.6850   -5.7720   10.3960 C.3   233  ILE233      0.0276
     47  CG1       12.5360   -6.6810    9.5140 C.3   233  ILE233      0.0022
     48  CG2       10.5750   -6.5750   11.0570 C.3   233  ILE233      0.0022
     49  CD1       13.8390   -6.0340    9.0640 C.3   233  ILE233      0.0001
     50  N         11.3530    0.6900    5.0570 N.3   240  GLN240     -0.1245
     51  CA        12.3170   -0.2210    5.6640 C.3   240  GLN240      0.1566
     52  C         13.7330    0.1330    5.2200 C.2   240  GLN240      0.2260
     53  O         14.6630    0.1050    6.0220 O.2   240  GLN240     -0.2867
     54  CB        11.9800   -1.6720    5.2950 C.3   240  GLN240      0.0367
     55  CG        13.1620   -2.6450    5.2900 C.3   240  GLN240      0.0905
     56  CD        13.8300   -2.8460    6.6440 C.2   240  GLN240      0.2608
     57  OE1       14.9230   -3.4110    6.7170 O.2   240  GLN240     -0.2717
     58  NE2       13.1760   -2.4040    7.7170 N.am  240  GLN240     -0.0878
     59  N         14.8890    3.2970    7.1220 N.3   243  ILE243     -0.1231
     60  CA        15.1660    3.0520    8.5280 C.3   243  ILE243      0.1692
     61  C         16.3840    2.1570    8.7060 C.2   243  ILE243      0.2591
     62  O         17.1520    2.3320    9.6510 O.2   243  ILE243     -0.2718
     63  CB        13.9430    2.4480    9.2380 C.3   243  ILE243      0.0266
     64  CG1       12.7980    3.4640    9.2140 C.3   243  ILE243      0.0019
     65  CG2       14.2930    2.0960   10.6840 C.3   243  ILE243      0.0020
     66  CD1       11.5220    2.9730    9.8570 C.3   243  ILE243      0.0001
     67  N         16.5800    1.2100    7.7940 N.am  244  ALA244     -0.1980
     68  CA        17.7400    0.3330    7.8820 C.3   244  ALA244      0.1597
     69  C         19.0170    1.1650    7.7770 C.2   244  ALA244      0.2287
     70  O         20.0510    0.8060    8.3440 O.2   244  ALA244     -0.2864
     71  CB        17.7000   -0.7130    6.7730 C.3   244  ALA244      0.0319
     72  N         19.6610    2.5550   11.2080 N.3   247  VAL247     -0.1231
     73  CA        20.1830    1.5140   12.0820 C.3   247  VAL247      0.1692
     74  C         21.6690    1.3040   11.7980 C.2   247  VAL247      0.2591
     75  O         22.4810    1.2290   12.7210 O.2   247  VAL247     -0.2718
     76  CB        19.4260    0.1800   11.8810 C.3   247  VAL247      0.0266
     77  CG1       20.0650   -0.9100   12.7270 C.3   247  VAL247      0.0020
     78  CG2       17.9630    0.3480   12.2680 C.3   247  VAL247      0.0020
     79  N         22.0260    1.2300   10.5180 N.am  248  ALA248     -0.1980
     80  CA        23.4230    1.0420   10.1370 C.3   248  ALA248      0.1597
     81  C         24.2790    2.2180   10.5990 C.2   248  ALA248      0.2287
     82  O         25.4050    2.0350   11.0620 O.2   248  ALA248     -0.2864
     83  CB        23.5350    0.8740    8.6240 C.3   248  ALA248      0.0319
     84  N         24.8470    1.7060   14.3610 N.3   251  PHE251     -0.1227
     85  CA        25.7380    0.5730   14.6280 C.3   251  PHE251      0.1736
     86  C         27.1710    0.8520   14.1680 C.2   251  PHE251      0.2595
     87  O         28.1240    0.4900   14.8500 O.2   251  PHE251     -0.2718
     88  CB        25.2440   -0.7020   13.9280 C.3   251  PHE251      0.0547
     89  CG        24.1560   -1.4330   14.6630 C.ar  251  PHE251     -0.0202
     90  CD1       24.2000   -1.5760   16.0410 C.ar  251  PHE251     -0.0042
     91  CD2       23.1210   -2.0330   13.9650 C.ar  251  PHE251     -0.0042
     92  CE1       23.2290   -2.3100   16.7090 C.ar  251  PHE251     -0.0003
     93  CE2       22.1490   -2.7670   14.6270 C.ar  251  PHE251     -0.0003
     94  CZ        22.2030   -2.9050   15.9960 C.ar  251  PHE251     -0.0000
     95  N         27.3290    1.4800   13.0070 N.am  252  PHE252     -0.1976
     96  CA        28.6700    1.7710   12.5170 C.3   252  PHE252      0.1639
     97  C         29.3410    2.8340   13.3830 C.2   252  PHE252      0.2290
     98  O         30.5670    2.8680   13.4960 O.2   252  PHE252     -0.2864
     99  CB        28.6310    2.2130   11.0480 C.3   252  PHE252      0.0560
    100  CG        28.2060    1.1250   10.0980 C.ar  252  PHE252     -0.0200
    101  CD1       28.2820   -0.2100   10.4690 C.ar  252  PHE252     -0.0042
    102  CD2       27.7460    1.4360    8.8260 C.ar  252  PHE252     -0.0042
    103  CE1       27.9060   -1.2170    9.5920 C.ar  252  PHE252     -0.0003
    104  CE2       27.3700    0.4340    7.9430 C.ar  252  PHE252     -0.0003
    105  CZ        27.4490   -0.8950    8.3250 C.ar  252  PHE252     -0.0000
    106  N         28.1350   -6.4570   11.9080 N.3   269  LEU269     -0.1245
    107  CA        26.9980   -5.5870   12.1720 C.3   269  LEU269      0.1561
    108  C         27.3920   -4.1570   12.5280 C.2   269  LEU269      0.2260
    109  O         26.6510   -3.2100   12.2570 O.2   269  LEU269     -0.2867
    110  CB        26.1480   -6.1750   13.2980 C.3   269  LEU269      0.0270
    111  CG        24.8030   -5.4920   13.5330 C.3   269  LEU269      0.0019
    112  CD1       23.9270   -5.6800   12.3030 C.3   269  LEU269      0.0001
    113  CD2       24.1310   -6.0890   14.7620 C.3   269  LEU269      0.0001
    114  N         25.3970   -6.0430    4.7460 N.3   278  ILE278     -0.1245
    115  CA        24.0490   -5.6870    5.1750 C.3   278  ILE278      0.1561
    116  C         22.9000   -6.5440    4.6270 C.2   278  ILE278      0.2260
    117  O         22.0830   -7.0450    5.3970 O.2   278  ILE278     -0.2867
    118  CB        23.7730   -4.1900    4.9200 C.3   278  ILE278      0.0252
    119  CG1       24.5650   -3.3570    5.9360 C.3   278  ILE278      0.0019
    120  CG2       22.2870   -3.8920    5.0390 C.3   278  ILE278      0.0019
    121  CD1       24.4500   -1.8670    5.7450 C.3   278  ILE278      0.0001
    122  N         23.0000   -9.9780    6.2040 N.3   281  MET281     -0.1230
    123  CA        22.7310   -9.9240    7.6370 C.3   281  MET281      0.1702
    124  C         21.2410   -9.6920    7.8670 C.2   281  MET281      0.2592
    125  O         20.6460  -10.2850    8.7670 O.2   281  MET281     -0.2718
    126  CB        23.5410   -8.8120    8.3140 C.3   281  MET281      0.0401
    127  CG        25.0280   -9.1170    8.4300 C.3   281  MET281      0.0596
    128  SD        25.9120   -7.9570    9.5010 S.3   281  MET281     -0.1393
    129  CE        25.6860   -6.4420    8.6040 C.3   281  MET281      0.0692
    130  N         20.6390   -8.8340    7.0470 N.am  282  GLN282     -0.1979
    131  CA        19.2130   -8.5350    7.1710 C.3   282  GLN282      0.1601
    132  C         18.3570   -9.7810    6.9680 C.2   282  GLN282      0.2287
    133  O         17.3980  -10.0150    7.7130 O.2   282  GLN282     -0.2864
    134  CB        18.8080   -7.4580    6.1580 C.3   282  GLN282      0.0394
    135  CG        19.1870   -6.0320    6.5610 C.3   282  GLN282      0.0908
    136  CD        18.4180   -5.5650    7.7850 C.2   282  GLN282      0.2608
    137  OE1       18.6990   -5.9870    8.9060 O.2   282  GLN282     -0.2717
    138  NE2       17.4300   -4.7050    7.5720 N.am  282  GLN282     -0.0878
    139  N         18.6860  -11.9220    9.9870 N.3   285  PHE285     -0.1241
    140  CA        17.9850  -11.3100   11.1120 C.3   285  PHE285      0.1605
    141  C         16.4870  -11.5560   10.9830 C.2   285  PHE285      0.2264
    142  O         15.8020  -11.8430   11.9690 O.2   285  PHE285     -0.2867
    143  CB        18.2700   -9.8030   11.1370 C.3   285  PHE285      0.0534
    144  CG        17.5110   -9.0500   12.1950 C.ar  285  PHE285     -0.0203
    145  CD1       17.7830   -9.2410   13.5400 C.ar  285  PHE285     -0.0042
    146  CD2       16.5380   -8.1330   11.8370 C.ar  285  PHE285     -0.0042
    147  CE1       17.0940   -8.5290   14.5110 C.ar  285  PHE285     -0.0003
    148  CE2       15.8460   -7.4200   12.8030 C.ar  285  PHE285     -0.0003
    149  CZ        16.1260   -7.6190   14.1380 C.ar  285  PHE285     -0.0000
    150  N         15.9900  -15.5190   11.6960 N.3   288  ALA288     -0.1231
    151  CA        16.2290  -15.9270   13.0780 C.3   288  ALA288      0.1694
    152  C         15.4780  -15.1940   14.1830 C.2   288  ALA288      0.2591
    153  O         15.1820  -15.7810   15.2230 O.2   288  ALA288     -0.2718
    154  CB        17.7240  -15.8690   13.3700 C.3   288  ALA288      0.0304
    155  N         15.1680  -13.9220   13.9670 N.am  289  ILE289     -0.1980
    156  CA        14.5070  -13.1270   14.9960 C.3   289  ILE289      0.1595
    157  C         13.0860  -12.6530   14.7140 C.2   289  ILE289      0.2287
    158  O         12.2280  -12.6760   15.5980 O.2   289  ILE289     -0.2864
    159  CB        15.3540  -11.8620   15.3140 C.3   289  ILE289      0.0276
    160  CG1       16.6780  -12.2590   15.9730 C.3   289  ILE289      0.0022
    161  CG2       14.5630  -10.9100   16.2010 C.3   289  ILE289      0.0022
    162  CD1       16.5290  -12.7830   17.3880 C.3   289  ILE289      0.0001
@<TRIPOS>BOND
     1   116   115    1
     2   116   117    2
     3   114   115    1
     4   118   120    1
     5   118   115    1
     6   118   119    1
     7    50    51    1
     8    52    51    1
     9    52    53    2
    10    55    54    1
    11    55    56    1
    12    54    51    1
    13   121   119    1
    14   134   135    1
    15   134   131    1
    16   122   123    1
    17   135   136    1
    18    56    57    2
    19    56    58   am
    20    71    68    1
    21   132   131    1
    22   132   133    2
    23   130   131    1
    24   130   124   am
    25    59    60    1
    26   138   136   am
    27   123   124    1
    28   123   126    1
    29    69    68    1
    30    69    70    2
    31   136   137    2
    32    67    68    1
    33    67    61   am
    34   124   125    2
    35    45    44    2
    36   104   105   ar
    37   104   102   ar
    38   126   127    1
    39   105   103   ar
    40   127   128    1
    41    60    61    1
    42    60    63    1
    43   129   128    1
    44    83    80    1
    45    40    39    2
    46    61    62    2
    47    44    43    1
    48   102   100   ar
    49    49    47    1
    50    64    63    1
    51    64    66    1
    52    63    65    1
    53    47    46    1
    54    43    46    1
    55    43    42    1
    56   103   101   ar
    57    39    42   am
    58    39    38    1
    59   139   140    1
    60   100   101   ar
    61   100    99    1
    62    80    79    1
    63    80    81    1
    64    46    48    1
    65    79    74   am
    66    81    82    2
    67    38    41    1
    68    38    37    1
    69   141   140    1
    70   141   142    2
    71    99    96    1
    72   140   143    1
    73   143   144    1
    74    72    73    1
    75   150   151    1
    76    74    73    1
    77    74    75    2
    78   146   144   ar
    79   146   148   ar
    80    76    73    1
    81    76    78    1
    82    76    77    1
    83   106   107    1
    84   107   108    1
    85   107   110    1
    86   144   145   ar
    87   109   108    2
    88   112   111    1
    89    96    95    1
    90    96    97    1
    91   148   149   ar
    92    95    86   am
    93   151   154    1
    94   151   152    1
    95    32    31    2
    96   110   111    1
    97    97    98    2
    98   111   113    1
    99   145   147   ar
   100    88    85    1
   101    88    89    1
   102    91    93   ar
   103    91    89   ar
   104   155   152   am
   105   155   156    1
   106   149   147   ar
   107     8    10   ar
   108     8     6   ar
   109    86    85    1
   110    86    87    2
   111   152   153    2
   112    10    11   ar
   113    31    30    1
   114    84    85    1
   115    93    94   ar
   116    89    90   ar
   117   157   156    1
   118   157   158    2
   119     5     6    1
   120     5     2    1
   121     6     7   ar
   122   156   159    1
   123    11    12    1
   124    11     9   ar
   125     1     2    1
   126     2     3    1
   127   159   160    1
   128   159   161    1
   129    33    30    1
   130    33    34    1
   131    30    29    1
   132     7     9   ar
   133   160   162    1
   134    94    92   ar
   135    90    92   ar
   136     4     3    2
   137    36    34    1
   138    35    34    1
   139    20    18    1
   140    19    18    1
   141    18    17    1
   142    28    26    1
   143    26    25    1
   144    17    14    1
   145    27    25    1
   146    25    22    1
   147    14    15    1
   148    14    13    1
   149    22    21    1
   150    22    23    1
   151    16    15    2
   152    24    23    2
