@<TRIPOS>MOLECULE
tmp/2chnB01.pdb
 159 153 0 0 0
SMALL
GASTEIGER

@<TRIPOS>ATOM
      1  N         13.9000   -5.3560   61.0770 N.3   122  GLY122     -0.1210
      2  CA        13.3350   -4.2540   61.8230 C.3   122  GLY122      0.1956
      3  C         13.6600   -2.9000   61.2680 C.2   122  GLY122      0.2612
      4  O         13.4470   -1.9080   61.9210 O.2   122  GLY122     -0.2717
      5  N         14.0930   -2.8590   60.0210 N.am  123  PHE123     -0.1962
      6  CA        14.5000   -1.6410   59.3460 C.3   123  PHE123      0.1771
      7  C         13.3800   -0.9400   58.5910 C.2   123  PHE123      0.2619
      8  O         12.2720   -1.4600   58.3620 O.2   123  PHE123     -0.2715
      9  CB        15.6560   -1.9460   58.3630 C.3   123  PHE123      0.0574
     10  CG        15.3060   -3.0280   57.3840 C.ar  123  PHE123     -0.0200
     11  CD1       14.4830   -2.7650   56.2960 C.ar  123  PHE123     -0.0042
     12  CD2       15.7180   -4.3200   57.5940 C.ar  123  PHE123     -0.0042
     13  CE1       14.0630   -3.8000   55.4440 C.ar  123  PHE123     -0.0003
     14  CE2       15.3740   -5.3190   56.7590 C.ar  123  PHE123     -0.0003
     15  CZ        14.5550   -5.0760   55.6470 C.ar  123  PHE123     -0.0000
     16  N         13.6830    0.3030   58.2270 N.am  124  TYR124     -0.1974
     17  CA        12.8700    1.0800   57.2620 C.3   124  TYR124      0.1639
     18  C         13.2460    0.7690   55.8210 C.2   124  TYR124      0.2290
     19  O         14.4010    0.5040   55.5150 O.2   124  TYR124     -0.2864
     20  CB        13.0480    2.5680   57.5080 C.3   124  TYR124      0.0560
     21  CG        12.5870    3.0280   58.8780 C.ar  124  TYR124     -0.0198
     22  CD1       11.2570    3.3320   59.1110 C.ar  124  TYR124     -0.0009
     23  CD2       13.4820    3.1460   59.9330 C.ar  124  TYR124     -0.0009
     24  CE1       10.8280    3.7870   60.3570 C.ar  124  TYR124      0.0417
     25  CE2       13.0760    3.6110   61.1770 C.ar  124  TYR124      0.0417
     26  CZ        11.7500    3.9170   61.3790 C.ar  124  TYR124      0.1957
     27  OH        11.3230    4.2860   62.5960 O.3   124  TYR124     -0.2866
     28  N          9.4390   -2.0360   59.3490 N.3   152  LYS152     -0.1245
     29  CA         8.7420   -0.7800   59.6490 C.3   152  LYS152      0.1561
     30  C          7.6710   -0.4390   58.6270 C.2   152  LYS152      0.2260
     31  O          6.6040    0.1120   58.9770 O.2   152  LYS152     -0.2867
     32  CB         9.7420    0.3630   59.7380 C.3   152  LYS152      0.0271
     33  CG        10.6230    0.2940   60.9870 C.3   152  LYS152      0.0035
     34  CD         9.7710    0.6650   62.2230 C.3   152  LYS152      0.0206
     35  CE        10.6300    0.8250   63.4790 C.3   152  LYS152      0.1093
     36  NZ        11.1810   -0.3990   64.0320 N.3   152  LYS152     -0.1314
     37  N          9.6280    1.6500   69.5820 N.3   227  ASP227     -0.1225
     38  CA        10.7000    2.4740   69.0050 C.3   227  ASP227      0.1805
     39  C         10.2510    3.5000   67.9650 C.2   227  ASP227      0.2597
     40  O          9.3690    3.2480   67.1190 O.2   227  ASP227     -0.2718
     41  CB        11.8190    1.6180   68.4160 C.3   227  ASP227      0.1424
     42  CG        11.3410    0.6740   67.3120 C.2   227  ASP227      0.3668
     43  OD1       10.2040    0.1970   67.4370 O.co2 227  ASP227     -0.2456
     44  OD2       12.0910    0.4580   66.3160 O.co2 227  ASP227     -0.2456
     45  N         10.8690    4.6790   68.0400 N.am  228  ASP228     -0.1974
     46  CA        10.6840    5.7170   67.0170 C.3   228  ASP228      0.1709
     47  C          9.2200    6.1500   66.8990 C.2   228  ASP228      0.2293
     48  O          8.6560    6.1800   65.8210 O.2   228  ASP228     -0.2864
     49  CB        11.2130    5.2550   65.6630 C.3   228  ASP228      0.1436
     50  CG        12.7430    5.0060   65.6410 C.2   228  ASP228      0.3671
     51  OD1       13.4670    5.1470   66.6510 O.co2 228  ASP228     -0.2456
     52  OD2       13.2260    4.6680   64.5430 O.co2 228  ASP228     -0.2456
     53  N         10.5570   -3.7680   72.7280 N.3   262  CYS262     -0.1235
     54  CA        11.5800   -2.7460   72.4420 C.3   262  CYS262      0.1677
     55  C         11.1390   -1.4350   73.0480 C.2   262  CYS262      0.2270
     56  O         10.0530   -0.9670   72.7440 O.2   262  CYS262     -0.2867
     57  CB        11.7980   -2.5660   70.9400 C.3   262  CYS262      0.0956
     58  SG        13.1090   -1.3580   70.5940 S.3   262  CYS262     -0.0801
     59  N         15.6810    3.4690   73.8380 N.3   266  TYR266     -0.1241
     60  CA        16.2840    2.1620   73.5040 C.3   266  TYR266      0.1605
     61  C         17.8000    2.2330   73.3590 C.2   266  TYR266      0.2264
     62  O         18.4730    1.2400   73.0070 O.2   266  TYR266     -0.2867
     63  CB        15.6550    1.5900   72.2270 C.3   266  TYR266      0.0534
     64  CG        15.7270    2.4370   70.9980 C.ar  266  TYR266     -0.0201
     65  CD1       16.9330    2.6020   70.2690 C.ar  266  TYR266     -0.0009
     66  CD2       14.5970    3.0450   70.4970 C.ar  266  TYR266     -0.0009
     67  CE1       16.9850    3.3300   69.1140 C.ar  266  TYR266      0.0417
     68  CE2       14.6650    3.7910   69.3180 C.ar  266  TYR266      0.0417
     69  CZ        15.8440    3.9450   68.6550 C.ar  266  TYR266      0.1957
     70  OH        15.8120    4.6990   67.5040 O.3   266  TYR266     -0.2866
     71  N         19.8870   -1.0280   72.0080 N.3   293  THR293     -0.1218
     72  CA        20.8430   -0.8840   70.8780 C.3   293  THR293      0.1862
     73  C         22.2540   -0.3970   71.2650 C.2   293  THR293      0.2287
     74  O         23.1230   -0.3160   70.3980 O.2   293  THR293     -0.2866
     75  CB        20.2830    0.0200   69.7510 C.3   293  THR293      0.1770
     76  OG1       20.2850    1.3950   70.1820 O.3   293  THR293     -0.2211
     77  CG2       18.8600   -0.3710   69.3420 C.3   293  THR293      0.0375
     78  N         22.0210    5.1210   69.1060 N.3   297  VAL297     -0.1231
     79  CA        21.1300    4.4590   68.1810 C.3   297  VAL297      0.1692
     80  C         21.9340    3.4040   67.4280 C.2   297  VAL297      0.2591
     81  O         21.4960    2.2540   67.3450 O.2   297  VAL297     -0.2718
     82  CB        20.4680    5.4360   67.1710 C.3   297  VAL297      0.0266
     83  CG1       19.6050    4.6570   66.1570 C.3   297  VAL297      0.0020
     84  CG2       19.6410    6.5320   67.9060 C.3   297  VAL297      0.0020
     85  N         23.0920    3.7840   66.8820 N.am  298  ILE298     -0.1980
     86  CA        23.9880    2.8250   66.2120 C.3   298  ILE298      0.1595
     87  C         25.2490    2.7500   67.0590 C.2   298  ILE298      0.2287
     88  O         25.9720    3.7170   67.1870 O.2   298  ILE298     -0.2864
     89  CB        24.4020    3.1880   64.7370 C.3   298  ILE298      0.0276
     90  CG1       23.2210    3.7190   63.9220 C.3   298  ILE298      0.0022
     91  CG2       25.0870    2.0060   64.1020 C.3   298  ILE298      0.0022
     92  CD1       22.0340    2.8140   63.7260 C.3   298  ILE298      0.0001
     93  N         19.7570   -5.4060   70.3780 N.3   320  TRP320     -0.1241
     94  CA        19.3770   -5.0370   69.0110 C.3   320  TRP320      0.1605
     95  C         20.5530   -4.2710   68.4470 C.2   320  TRP320      0.2264
     96  O         20.6800   -3.0710   68.6630 O.2   320  TRP320     -0.2867
     97  CB        18.1080   -4.1360   69.0400 C.3   320  TRP320      0.0550
     98  CG        17.5350   -3.5890   67.6880 C.ar  320  TRP320      0.0003
     99  CD1       18.2230   -3.0660   66.6490 C.ar  320  TRP320      0.0946
    100  CD2       16.1470   -3.4860   67.3190 C.ar  320  TRP320      0.0152
    101  NE1       17.3740   -2.6980   65.6510 N.ar  320  TRP320     -0.2442
    102  CE2       16.0950   -2.9230   66.0500 C.ar  320  TRP320      0.0810
    103  CE3       14.9490   -3.8680   67.9410 C.ar  320  TRP320      0.0012
    104  CZ2       14.9120   -2.7420   65.3600 C.ar  320  TRP320      0.0191
    105  CZ3       13.7890   -3.6390   67.2960 C.ar  320  TRP320      0.0001
    106  CH2       13.7610   -3.0900   66.0040 C.ar  320  TRP320      0.0015
    107  N         22.5870   -2.5340   65.5540 N.3   322  ASN322     -0.1240
    108  CA        22.2640   -1.8800   64.2650 C.3   322  ASN322      0.1653
    109  C         23.3770   -1.9440   63.2230 C.2   322  ASN322      0.2266
    110  O         23.9300   -0.9620   62.8230 O.2   322  ASN322     -0.2867
    111  CB        21.7930   -0.4510   64.5560 C.3   322  ASN322      0.1155
    112  CG        20.3570   -0.4300   64.9700 C.2   322  ASN322      0.2627
    113  OD1       19.5270   -1.0220   64.2920 O.2   322  ASN322     -0.2716
    114  ND2       20.0500    0.1910   66.1170 N.am  322  ASN322     -0.0877
    115  N         22.4150   -2.7660   58.9970 N.3   325  VAL325     -0.1245
    116  CA        21.3070   -1.9320   58.5410 C.3   325  VAL325      0.1561
    117  C         21.8630   -0.6800   57.8990 C.2   325  VAL325      0.2260
    118  O         22.7590   -0.0330   58.4670 O.2   325  VAL325     -0.2867
    119  CB        20.2960   -1.5900   59.6940 C.3   325  VAL325      0.0252
    120  CG1       21.0070   -0.9780   60.9130 C.3   325  VAL325      0.0019
    121  CG2       19.1440   -0.6470   59.2080 C.3   325  VAL325      0.0019
    122  N         19.6530    1.7660   56.4160 N.3   327  ASP327     -0.1225
    123  CA        18.4230    2.4570   56.0420 C.3   327  ASP327      0.1805
    124  C         18.4940    3.9820   56.2080 C.2   327  ASP327      0.2597
    125  O         17.5650    4.6770   55.8180 O.2   327  ASP327     -0.2718
    126  CB        17.1640    1.8560   56.7170 C.3   327  ASP327      0.1424
    127  CG        17.1820    1.8980   58.2300 C.2   327  ASP327      0.3668
    128  OD1       18.0340    2.5920   58.7860 O.co2 327  ASP327     -0.2456
    129  OD2       16.2990    1.2570   58.8670 O.co2 327  ASP327     -0.2456
    130  N         19.5960    4.4430   56.7910 N.am  328  TYR328     -0.1976
    131  CA        19.8850    5.8640   56.9470 C.3   328  TYR328      0.1639
    132  C         21.0980    6.2740   56.0610 C.2   328  TYR328      0.2290
    133  O         21.4930    7.4420   56.0480 O.2   328  TYR328     -0.2864
    134  CB        20.1650    6.1410   58.4150 C.3   328  TYR328      0.0560
    135  CG        21.3050    5.3700   59.0250 C.ar  328  TYR328     -0.0198
    136  CD1       21.1190    4.0530   59.4770 C.ar  328  TYR328     -0.0009
    137  CD2       22.5790    5.9630   59.1990 C.ar  328  TYR328     -0.0009
    138  CE1       22.1270    3.3780   60.0330 C.ar  328  TYR328      0.0417
    139  CE2       23.6040    5.2720   59.7860 C.ar  328  TYR328      0.0417
    140  CZ        23.3920    3.9700   60.1690 C.ar  328  TYR328      0.1957
    141  OH        24.4260    3.2610   60.7680 O.3   328  TYR328     -0.2866
    142  N         20.0320   -6.1800   63.1830 N.3   354  ASN354     -0.1240
    143  CA        19.1740   -5.4730   62.2280 C.3   354  ASN354      0.1653
    144  C         19.9290   -5.2960   60.9000 C.2   354  ASN354      0.2266
    145  O         20.9300   -4.5960   60.8580 O.2   354  ASN354     -0.2867
    146  CB        18.8020   -4.1520   62.8530 C.3   354  ASN354      0.1155
    147  CG        17.6840   -3.4270   62.1130 C.2   354  ASN354      0.2627
    148  OD1       16.8760   -4.0180   61.4000 O.2   354  ASN354     -0.2716
    149  ND2       17.6400   -2.1170   62.2950 N.am  354  ASN354     -0.0877
    150  N         24.0720    9.6370   62.4100 N.3   413  HIS413     -0.1241
    151  CA        24.3270    8.7970   63.5830 C.3   413  HIS413      0.1621
    152  C         25.7920    8.7190   64.0020 C.2   413  HIS413      0.2264
    153  O         26.0970    8.1420   65.0350 O.2   413  HIS413     -0.2867
    154  CB        23.8000    7.3740   63.3500 C.3   413  HIS413      0.0745
    155  CG        22.3150    7.2800   63.3470 C.ar  413  HIS413      0.0817
    156  ND1       21.5440    7.8710   64.3170 N.ar  413  HIS413     -0.2268
    157  CD2       21.4500    6.6620   62.4990 C.ar  413  HIS413      0.1154
    158  CE1       20.2610    7.6290   64.0660 C.ar  413  HIS413      0.1986
    159  NE2       20.1770    6.8910   62.9710 N.ar  413  HIS413     -0.2212
@<TRIPOS>BOND
     1    13    15   ar
     2    13    11   ar
     3    19    18    2
     4    15    14   ar
     5   125   124    2
     6    18    17    1
     7   123   124    1
     8   123   122    1
     9   123   126    1
    10   133   132    2
    11   132   131    1
    12   124   130   am
    13    11    10   ar
    14   126   127    1
    15    14    12   ar
    16   130   131    1
    17   131   134    1
    18    17    20    1
    19    17    16    1
    20    10    12   ar
    21    10     9    1
    22    20    21    1
    23   117   118    2
    24   117   116    1
    25    16     7   am
    26   127   128   ar
    27   127   129   ar
    28     8     7    2
    29     9     6    1
    30   134   135    1
    31   116   115    1
    32   116   119    1
    33     7     6    1
    34    30    31    2
    35    30    29    1
    36    21    22   ar
    37    21    23   ar
    38   135   137   ar
    39   135   136   ar
    40    22    24   ar
    41   137   139   ar
    42   121   119    1
    43     6     5    1
    44    28    29    1
    45   136   138   ar
    46    29    32    1
    47   119   120    1
    48    32    33    1
    49   139   140   ar
    50    23    25   ar
    51     5     3   am
    52   138   140   ar
    53   140   141    1
    54    24    26   ar
    55   145   144    2
    56   144   143    1
    57    33    34    1
    58     1     2    1
    59    25    26   ar
    60     3     2    1
    61     3     4    2
    62    26    27    1
    63   148   147    2
    64   147   149   am
    65   147   146    1
    66    34    35    1
    67   143   146    1
    68   143   142    1
    69   150   151    1
    70   157   159   ar
    71   157   155   ar
    72   110   109    2
    73   159   158   ar
    74   109   108    1
    75   155   154    1
    76   155   156   ar
    77   154   151    1
    78    35    36    1
    79   151   152    1
    80    92    90    1
    81    90    89    1
    82   152   153    2
    83   158   156   ar
    84    91    89    1
    85   108   111    1
    86   108   107    1
    87   113   112    2
    88    52    50   ar
    89   111   112    1
    90    89    86    1
    91   112   114   am
    92   104   106   ar
    93   104   102   ar
    94    50    49    1
    95    50    51   ar
    96   101   102   ar
    97   101    99   ar
    98    49    46    1
    99    48    47    2
   100   106   105   ar
   101   102   100   ar
   102    83    82    1
   103    86    85    1
   104    86    87    1
   105    44    42   ar
   106    99    98   ar
   107    85    80   am
   108    47    46    1
   109    46    45    1
   110    87    88    2
   111    40    39    2
   112    82    84    1
   113    82    79    1
   114   105   103   ar
   115    42    43   ar
   116    42    41    1
   117   100    98   ar
   118   100   103   ar
   119    81    80    2
   120    80    79    1
   121    70    69    1
   122    98    97    1
   123    39    45   am
   124    39    38    1
   125    79    78    1
   126    41    38    1
   127    95    96    2
   128    95    94    1
   129    69    67   ar
   130    69    68   ar
   131    38    37    1
   132    94    97    1
   133    94    93    1
   134    67    65   ar
   135    68    66   ar
   136    77    75    1
   137    75    76    1
   138    75    72    1
   139    65    64   ar
   140    74    73    2
   141    66    64   ar
   142    58    57    1
   143    72    73    1
   144    72    71    1
   145    57    54    1
   146    64    63    1
   147    63    60    1
   148    54    53    1
   149    54    55    1
   150    56    55    2
   151    62    61    2
   152    61    60    1
   153    60    59    1
