@<TRIPOS>MOLECULE
tmp/2chqB00.pdb
 174 167 0 0 0
SMALL
GASTEIGER

@<TRIPOS>ATOM
      1  N         63.9100   26.8740   78.6090 N.3     3  VAL3       -0.1245
      2  CA        63.1430   27.0340   77.3640 C.3     3  VAL3        0.1561
      3  C         62.5550   25.6580   76.9840 C.2     3  VAL3        0.2260
      4  O         61.4900   25.6160   76.3480 O.2     3  VAL3       -0.2867
      5  CB        63.9590   27.7430   76.2710 C.3     3  VAL3        0.0252
      6  CG1       65.4050   27.8870   76.7720 C.3     3  VAL3        0.0019
      7  CG2       63.9390   26.9700   74.9280 C.3     3  VAL3        0.0019
      8  N         59.8090   24.2110   79.9310 N.3     6  TYR6       -0.1227
      9  CA        58.5690   24.9980   79.9280 C.3     6  TYR6        0.1736
     10  C         57.9170   25.0620   78.5510 C.2     6  TYR6        0.2595
     11  O         56.9530   25.8590   78.3190 O.2     6  TYR6       -0.2718
     12  CB        58.7670   26.3920   80.5370 C.3     6  TYR6        0.0548
     13  CG        59.1130   26.3170   81.9930 C.ar    6  TYR6       -0.0200
     14  CD1       60.4360   26.1730   82.3810 C.ar    6  TYR6       -0.0009
     15  CD2       58.1430   26.3310   82.9890 C.ar    6  TYR6       -0.0009
     16  CE1       60.8200   26.0490   83.7440 C.ar    6  TYR6        0.0417
     17  CE2       58.5070   26.2280   84.3670 C.ar    6  TYR6        0.0417
     18  CZ        59.8590   26.0790   84.7340 C.ar    6  TYR6        0.1957
     19  OH        60.2940   25.9630   86.0530 O.3     6  TYR6       -0.2866
     20  N         58.4540   24.2130   77.6550 N.am    7  ARG7       -0.1966
     21  CA        57.7830   23.7910   76.4030 C.3     7  ARG7        0.1714
     22  C         56.3490   23.4810   76.8090 C.2     7  ARG7        0.2458
     23  O         56.1120   22.5920   77.7030 O.2     7  ARG7       -0.2730
     24  CB        58.4090   22.4910   75.8430 C.3     7  ARG7        0.0347
     25  CG        58.8100   22.4880   74.3320 C.3     7  ARG7        0.0492
     26  CD        60.0950   21.5580   74.1450 C.3     7  ARG7        0.2205
     27  NE        61.3540   22.2380   74.5950 N.pl3   7  ARG7       -0.0865
     28  CZ        62.4410   22.5680   73.8300 C.cat   7  ARG7        0.5346
     29  NH1       62.5180   22.2320   72.5160 N.pl3   7  ARG7        0.1354
     30  NH2       63.5070   23.2140   74.3830 N.pl3   7  ARG7        0.1354
     31  N         55.3900   24.2430   76.2210 N.am    8  PRO8       -0.2727
     32  CA        53.9950   24.0090   76.6100 C.3     8  PRO8        0.1402
     33  C         53.7200   22.5650   76.2720 C.2     8  PRO8        0.2269
     34  O         54.3250   22.0080   75.3310 O.2     8  PRO8       -0.2865
     35  CB        53.1920   24.9830   75.7320 C.3     8  PRO8        0.0296
     36  CG        54.1800   26.0590   75.3830 C.3     8  PRO8        0.0237
     37  CD        55.5090   25.3140   75.2160 C.3     8  PRO8        0.0939
     38  N         48.2280   25.4950   76.7220 N.3    13  GLU13      -0.1231
     39  CA        49.4280   26.0720   77.3810 C.3    13  GLU13       0.1699
     40  C         50.3050   26.9990   76.5180 C.2    13  GLU13       0.2592
     41  O         51.1840   27.6730   77.0420 O.2    13  GLU13      -0.2718
     42  CB        50.2930   24.9700   78.0180 C.3    13  GLU13       0.0402
     43  CG        49.8380   24.5260   79.4130 C.3    13  GLU13       0.1161
     44  CD        50.9190   23.7940   80.2030 C.2    13  GLU13       0.3649
     45  OE1       52.0310   23.5900   79.6670 O.co2  13  GLU13      -0.2457
     46  OE2       50.6540   23.4300   81.3690 O.co2  13  GLU13      -0.2457
     47  N         50.0740   27.0290   75.2090 N.am   14  VAL14      -0.1966
     48  CA        50.7480   27.9790   74.3360 C.3    14  VAL14       0.1727
     49  C         50.0070   29.2980   74.4160 C.2    14  VAL14       0.2616
     50  O         48.7950   29.3240   74.3100 O.2    14  VAL14      -0.2715
     51  CB        50.7440   27.5150   72.8900 C.3    14  VAL14       0.0290
     52  CG1       51.6130   28.4230   72.0810 C.3    14  VAL14       0.0023
     53  CG2       51.2330   26.1010   72.7790 C.3    14  VAL14       0.0023
     54  N         50.7180   30.4000   74.5910 N.am   15  VAL15      -0.1977
     55  CA        50.0410   31.6300   74.9380 C.3    15  VAL15       0.1596
     56  C         50.2650   32.7390   73.9240 C.2    15  VAL15       0.2287
     57  O         51.1720   32.6640   73.1230 O.2    15  VAL15      -0.2864
     58  CB        50.4610   32.0860   76.3280 C.3    15  VAL15       0.0276
     59  CG1       51.7480   32.8690   76.2370 C.3    15  VAL15       0.0022
     60  CG2       49.3310   32.8920   77.0160 C.3    15  VAL15       0.0022
     61  N         48.6530   33.4370   71.3760 N.3    17  GLN17      -0.1245
     62  CA        48.3860   33.0400   70.0240 C.3    17  GLN17       0.1566
     63  C         46.9750   32.5430   69.8550 C.2    17  GLN17       0.2260
     64  O         46.7110   31.7570   68.9470 O.2    17  GLN17      -0.2867
     65  CB        49.3720   31.9550   69.6130 C.3    17  GLN17       0.0367
     66  CG        50.8120   32.3720   69.7230 C.3    17  GLN17       0.0905
     67  CD        51.1750   33.3890   68.7020 C.2    17  GLN17       0.2608
     68  OE1       50.3130   34.1400   68.2310 O.2    17  GLN17      -0.2717
     69  NE2       52.4590   33.4230   68.3270 N.am   17  GLN17      -0.0878
     70  N         60.7520   34.4560   64.7510 N.3    42  PRO42      -0.2102
     71  CA        61.2250   33.2530   65.3940 C.3    42  PRO42       0.1504
     72  C         60.9400   33.3990   66.8820 C.2    42  PRO42       0.2576
     73  O         60.7300   34.5130   67.3710 O.2    42  PRO42      -0.2718
     74  CB        62.7320   33.2550   65.0890 C.3    42  PRO42       0.0282
     75  CG        63.1050   34.6880   65.0710 C.3    42  PRO42       0.0208
     76  CD        61.8340   35.4660   64.6710 C.3    42  PRO42       0.0893
     77  N         60.8830   32.2650   67.5650 N.am   43  GLY43      -0.1943
     78  CA        60.6690   32.2220   68.9880 C.3    43  GLY43       0.2014
     79  C         59.2930   32.6400   69.4290 C.2    43  GLY43       0.2640
     80  O         59.1630   33.2600   70.4660 O.2    43  GLY43      -0.2714
     81  N         58.2580   32.3010   68.6690 N.am   44  THR44      -0.1936
     82  CA        56.9130   32.6940   69.0640 C.3    44  THR44       0.2028
     83  C         56.0350   31.5260   69.3110 C.2    44  THR44       0.2643
     84  O         54.9860   31.6630   69.9360 O.2    44  THR44      -0.2714
     85  CB        56.2260   33.5390   68.0460 C.3    44  THR44       0.1808
     86  OG1       57.1730   33.9040   67.0420 O.3    44  THR44      -0.2208
     87  CG2       55.6720   34.7630   68.7380 C.3    44  THR44       0.0379
     88  N         56.4390   30.3720   68.8090 N.am   45  GLY45      -0.1939
     89  CA        55.7820   29.1450   69.2310 C.3    45  GLY45       0.2014
     90  C         55.2790   28.2110   68.1600 C.2    45  GLY45       0.2639
     91  O         54.4190   27.3670   68.4070 O.2    45  GLY45      -0.2714
     92  N         55.8050   28.3700   66.9600 N.am   46  LYS46      -0.1963
     93  CA        55.5860   27.3790   65.9390 C.3    46  LYS46       0.1728
     94  C         56.0350   26.0430   66.5380 C.2    46  LYS46       0.2617
     95  O         55.1840   25.3310   67.0270 O.2    46  LYS46      -0.2715
     96  CB        56.2690   27.7810   64.6340 C.3    46  LYS46       0.0311
     97  CG        55.7880   29.1670   64.1400 C.3    46  LYS46       0.0038
     98  CD        56.5980   29.6910   62.9750 C.3    46  LYS46       0.0206
     99  CE        57.5630   30.6990   63.4450 C.3    46  LYS46       0.1093
    100  NZ        58.6590   30.7670   62.4720 N.3    46  LYS46      -0.1314
    101  N         57.3280   25.7330   66.6150 N.am   47  THR47      -0.1937
    102  CA        57.7600   24.4410   67.1720 C.3    47  THR47       0.2028
    103  C         56.9700   24.0340   68.4210 C.2    47  THR47       0.2642
    104  O         56.6450   22.8660   68.5930 O.2    47  THR47      -0.2714
    105  CB        59.2580   24.4280   67.4910 C.3    47  THR47       0.1808
    106  OG1       59.9810   24.8710   66.3450 O.3    47  THR47      -0.2208
    107  CG2       59.7450   23.0350   67.8420 C.3    47  THR47       0.0379
    108  N         56.6350   24.9940   69.2770 N.am   48  ALA48      -0.1977
    109  CA        55.9820   24.6900   70.5430 C.3    48  ALA48       0.1597
    110  C         54.6180   24.1220   70.3080 C.2    48  ALA48       0.2287
    111  O         54.3280   23.0370   70.7720 O.2    48  ALA48      -0.2864
    112  CB        55.8810   25.9180   71.4080 C.3    48  ALA48       0.0319
    113  N         61.2240   22.5590   60.1990 N.3   104  ASP104     -0.1239
    114  CA        61.6210   23.9210   60.5770 C.3   104  ASP104      0.1674
    115  C         62.3520   24.5180   59.3960 C.2   104  ASP104      0.2266
    116  O         63.0010   23.7900   58.6380 O.2   104  ASP104     -0.2867
    117  CB        62.5570   23.9000   61.8120 C.3   104  ASP104      0.1410
    118  CG        62.3450   25.0970   62.7720 C.2   104  ASP104      0.3668
    119  OD1       61.4780   25.9690   62.5150 O.co2 104  ASP104     -0.2456
    120  OD2       63.0580   25.1430   63.8010 O.co2 104  ASP104     -0.2456
    121  N         57.1940   25.1140   59.0560 N.3   133  SER133     -0.1217
    122  CA        57.4410   26.3370   59.7990 C.3   133  SER133      0.1889
    123  C         58.2470   27.2250   58.9000 C.2   133  SER133      0.2288
    124  O         59.2240   26.7630   58.3080 O.2   133  SER133     -0.2866
    125  CB        58.2240   26.0650   61.1020 C.3   133  SER133      0.2089
    126  OG        58.7530   27.2560   61.6960 O.3   133  SER133     -0.2183
    127  N         54.6930   37.7180   70.4940 N.3   156  VAL156     -0.1245
    128  CA        53.7530   37.4930   71.6020 C.3   156  VAL156      0.1561
    129  C         53.4090   38.7240   72.4580 C.2   156  VAL156      0.2260
    130  O         54.3790   39.3450   72.9580 O.2   156  VAL156     -0.2867
    131  CB        54.2510   36.3060   72.4270 C.3   156  VAL156      0.0252
    132  CG1       55.7630   36.2970   72.4730 C.3   156  VAL156      0.0019
    133  CG2       53.6140   36.2780   73.8050 C.3   156  VAL156      0.0019
    134  N         53.2090   34.6990   81.7350 N.3   164  ARG164     -0.1245
    135  CA        53.8830   33.3950   81.7230 C.3   164  ARG164      0.1563
    136  C         55.3040   33.5530   82.1320 C.2   164  ARG164      0.2260
    137  O         55.9570   32.5930   82.4540 O.2   164  ARG164     -0.2867
    138  CB        53.7670   32.6670   80.3690 C.3   164  ARG164      0.0307
    139  CG        54.8550   31.6160   80.0210 C.3   164  ARG164      0.0489
    140  CD        54.7630   30.3360   80.8030 C.3   164  ARG164      0.2205
    141  NE        54.1640   29.2480   80.0610 N.pl3 164  ARG164     -0.0865
    142  CZ        52.8550   29.1230   79.8500 C.cat 164  ARG164      0.5346
    143  NH1       52.0020   30.0300   80.2960 N.pl3 164  ARG164      0.1354
    144  NH2       52.3860   28.0920   79.1720 N.pl3 164  ARG164      0.1354
    145  N         59.7850   34.6450   73.0720 N.3   192  PHE192     -0.1227
    146  CA        60.0230   33.9520   74.3340 C.3   192  PHE192      0.1736
    147  C         61.4230   33.4390   74.4670 C.2   192  PHE192      0.2595
    148  O         62.0890   33.7440   75.4260 O.2   192  PHE192     -0.2718
    149  CB        59.0980   32.7710   74.4940 C.3   192  PHE192      0.0547
    150  CG        57.8400   33.0820   75.2510 C.ar  192  PHE192     -0.0202
    151  CD1       56.5670   32.8910   74.6390 C.ar  192  PHE192     -0.0042
    152  CD2       57.8920   33.5460   76.5860 C.ar  192  PHE192     -0.0042
    153  CE1       55.3520   33.1570   75.3460 C.ar  192  PHE192     -0.0003
    154  CE2       56.6820   33.8280   77.3140 C.ar  192  PHE192     -0.0003
    155  CZ        55.4230   33.6410   76.6960 C.ar  192  PHE192     -0.0000
    156  N         61.8830   32.6500   73.5090 N.am  193  ARG193     -0.1980
    157  CA        63.2150   32.0730   73.6070 C.3   193  ARG193      0.1597
    158  C         64.1260   33.1400   74.1620 C.2   193  ARG193      0.2287
    159  O         64.7760   32.9380   75.1670 O.2   193  ARG193     -0.2864
    160  CB        63.7010   31.5240   72.2570 C.3   193  ARG193      0.0334
    161  CG        64.7510   30.4170   72.3730 C.3   193  ARG193      0.0492
    162  CD        64.7570   29.3800   71.2470 C.3   193  ARG193      0.2205
    163  NE        64.1360   29.8260   69.9940 N.pl3 193  ARG193     -0.0865
    164  CZ        64.6670   30.6670   69.0990 C.cat 193  ARG193      0.5346
    165  NH1       65.8550   31.2230   69.2900 N.pl3 193  ARG193      0.1354
    166  NH2       63.9870   30.9710   67.9980 N.pl3 193  ARG193      0.1354
    167  N         62.7480   34.0950   78.0040 N.3   196  ILE196     -0.1245
    168  CA        63.0060   33.0200   78.9590 C.3   196  ILE196      0.1561
    169  C         64.5010   32.9150   79.1860 C.2   196  ILE196      0.2260
    170  O         65.0010   33.2470   80.2410 O.2   196  ILE196     -0.2867
    171  CB        62.5180   31.6610   78.4390 C.3   196  ILE196      0.0252
    172  CG1       61.0450   31.6990   77.9800 C.3   196  ILE196      0.0019
    173  CG2       62.7970   30.6010   79.4510 C.3   196  ILE196      0.0019
    174  CD1       60.0300   32.0010   79.0140 C.3   196  ILE196      0.0001
@<TRIPOS>BOND
     1   124   123    2
     2   116   115    2
     3   123   122    1
     4   121   122    1
     5   115   114    1
     6   122   125    1
     7   113   114    1
     8   114   117    1
     9   125   126    1
    10   117   118    1
    11   100    99    1
    12   119   118   ar
    13   118   120   ar
    14    98    99    1
    15    98    97    1
    16    97    96    1
    17    96    93    1
    18    76    70    1
    19    76    75    1
    20    70    71    1
    21    75    74    1
    22    74    71    1
    23    71    72    1
    24    93    94    1
    25    93    92    1
    26   106   105    1
    27    94   101   am
    28    94    95    2
    29   101   102    1
    30    72    73    2
    31    72    77   am
    32    92    90   am
    33    86    85    1
    34   102   105    1
    35   102   103    1
    36   105   107    1
    37    77    78    1
    38   166   164    1
    39    85    87    1
    40    85    82    1
    41    90    91    2
    42    90    89    1
    43    68    67    2
    44    69    67   am
    45   103   104    2
    46   103   108   am
    47    81    82    1
    48    81    79   am
    49    67    66    1
    50    88    89    1
    51    88    83   am
    52    64    63    2
    53    78    79    1
    54    82    83    1
    55   164   165    1
    56   164   163    2
    57   108   109    1
    58    83    84    2
    59    79    80    2
    60    65    66    1
    61    65    62    1
    62    63    62    1
    63   163   162    1
    64    62    61    1
    65   110   109    1
    66   110   111    2
    67   127   128    1
    68   109   112    1
    69   162   161    1
    70   128   131    1
    71   128   129    1
    72    52    51    1
    73   160   161    1
    74   160   157    1
    75   131   132    1
    76   131   133    1
    77   129   130    2
    78    29    28    1
    79    53    51    1
    80    51    48    1
    81   145   146    1
    82    57    56    2
    83   156   157    1
    84   156   147   am
    85   157   158    1
    86    28    30    1
    87    28    27    2
    88    56    55    1
    89    26    25    1
    90    26    27    1
    91   158   159    2
    92    50    49    2
    93    25    24    1
    94   146   147    1
    95   146   149    1
    96    48    49    1
    97    48    47    1
    98    49    54   am
    99   147   148    2
   100   149   150    1
   101    54    55    1
   102   151   150   ar
   103   151   153   ar
   104     7     5    1
   105    55    58    1
   106    47    40   am
   107    37    36    1
   108    37    31    1
   109   150   152   ar
   110    34    33    2
   111   153   155   ar
   112    36    35    1
   113    35    32    1
   114    24    21    1
   115    31    32    1
   116    31    22   am
   117    59    58    1
   118     5     6    1
   119     5     2    1
   120    33    32    1
   121    58    60    1
   122     4     3    2
   123    21    22    1
   124    21    20    1
   125    40    41    2
   126    40    39    1
   127   152   154   ar
   128   155   154   ar
   129    38    39    1
   130    22    23    2
   131     3     2    1
   132     2     1    1
   133    39    42    1
   134    20    10   am
   135   172   171    1
   136   172   174    1
   137   167   168    1
   138    42    43    1
   139    11    10    2
   140   171   168    1
   141   171   173    1
   142    10     9    1
   143   168   169    1
   144   144   142    1
   145   169   170    2
   146    43    44    1
   147    45    44   ar
   148   142   141    2
   149   142   143    1
   150     9     8    1
   151     9    12    1
   152   139   138    1
   153   139   140    1
   154   141   140    1
   155    44    46   ar
   156   138   135    1
   157    12    13    1
   158   135   134    1
   159   135   136    1
   160    13    14   ar
   161    13    15   ar
   162   136   137    2
   163    14    16   ar
   164    15    17   ar
   165    16    18   ar
   166    17    18   ar
   167    18    19    1
