@<TRIPOS>MOLECULE
tmp/2chuA01.pdb
 116 108 0 0 0
SMALL
GASTEIGER

@<TRIPOS>ATOM
      1  N          0.8730   13.2620   -3.6180 N.3    57  ASN57      -0.1240
      2  CA         0.5280   11.9330   -4.1490 C.3    57  ASN57       0.1653
      3  C         -0.8150   11.4020   -3.5980 C.2    57  ASN57       0.2266
      4  O         -0.8650   10.2720   -3.1110 O.2    57  ASN57      -0.2867
      5  CB         1.6150   10.8970   -3.7530 C.3    57  ASN57       0.1155
      6  CG         3.0280   11.2830   -4.2020 C.2    57  ASN57       0.2627
      7  OD1        3.8870   11.6280   -3.3690 O.2    57  ASN57      -0.2716
      8  ND2        3.2920   11.1490   -5.5040 N.am   57  ASN57      -0.0877
      9  N          5.0850   11.4510   -0.8520 N.3    74  VAL74      -0.1231
     10  CA         5.6940   10.2970   -0.1110 C.3    74  VAL74       0.1692
     11  C          7.2250   10.2860   -0.0330 C.2    74  VAL74       0.2591
     12  O          7.8100    9.9100    1.0270 O.2    74  VAL74      -0.2718
     13  CB         5.2350    8.9090   -0.5910 C.3    74  VAL74       0.0266
     14  CG1        3.9320    8.6100    0.0370 C.3    74  VAL74       0.0020
     15  CG2        5.2180    8.8140   -2.1540 C.3    74  VAL74       0.0020
     16  N          7.8710   10.7130   -1.1080 N.am   75  GLN75      -0.1979
     17  CA         9.3060   10.9080   -1.0260 C.3    75  GLN75       0.1601
     18  C          9.7240   12.1000   -0.1150 C.2    75  GLN75       0.2287
     19  O         10.2820   11.8720    0.9760 O.2    75  GLN75      -0.2864
     20  CB         9.9310   10.9380   -2.4340 C.3    75  GLN75       0.0394
     21  CG         9.8630    9.5780   -3.1340 C.3    75  GLN75       0.0908
     22  CD        10.3810    8.4440   -2.2680 C.2    75  GLN75       0.2608
     23  OE1       11.1640    8.6740   -1.3540 O.2    75  GLN75      -0.2717
     24  NE2        9.9420    7.2390   -2.5240 N.am   75  GLN75      -0.0878
     25  N          9.0530    4.5570    3.3990 N.3    95  ARG95      -0.1245
     26  CA         9.5710    5.6320    2.5620 C.3    95  ARG95       0.1563
     27  C          9.9300    6.8090    3.3900 C.2    95  ARG95       0.2260
     28  O         10.5400    7.7220    2.8840 O.2    95  ARG95      -0.2867
     29  CB         8.5350    6.0530    1.4990 C.3    95  ARG95       0.0307
     30  CG         8.2960    5.0010    0.3800 C.3    95  ARG95       0.0489
     31  CD         7.5560    5.6150   -0.7020 C.3    95  ARG95       0.2205
     32  NE         7.3780    4.7670   -1.8600 N.pl3  95  ARG95      -0.0865
     33  CZ         6.2330    4.1710   -2.2280 C.cat  95  ARG95       0.5346
     34  NH1        5.1370    4.2950   -1.5220 N.pl3  95  ARG95       0.1354
     35  NH2        6.1680    3.4980   -3.3580 N.pl3  95  ARG95       0.1354
     36  N          6.8690   -4.4920  -13.1670 N.3   168  LEU168     -0.1245
     37  CA         6.8100   -3.0830  -12.9830 C.3   168  LEU168      0.1561
     38  C          7.4950   -2.3880  -14.1790 C.2   168  LEU168      0.2260
     39  O          8.5990   -2.7250  -14.5790 O.2   168  LEU168     -0.2867
     40  CB         7.5150   -2.7170  -11.6830 C.3   168  LEU168      0.0270
     41  CG         7.5330   -1.2050  -11.3050 C.3   168  LEU168      0.0019
     42  CD1        6.1500   -0.6290  -11.0670 C.3   168  LEU168      0.0001
     43  CD2        8.3540   -1.0520  -10.0840 C.3   168  LEU168      0.0001
     44  N          8.9760   -9.0900  -10.3300 N.3   177  PHE177     -0.1241
     45  CA         8.7640   -9.2450   -8.9010 C.3   177  PHE177      0.1605
     46  C          8.1440  -10.6310   -8.5830 C.2   177  PHE177      0.2264
     47  O          7.3720  -11.2230   -9.3650 O.2   177  PHE177     -0.2867
     48  CB         7.9030   -8.0620   -8.3230 C.3   177  PHE177      0.0534
     49  CG         8.6830   -6.7590   -8.1770 C.ar  177  PHE177     -0.0203
     50  CD1        9.2800   -6.4180   -6.9840 C.ar  177  PHE177     -0.0042
     51  CD2        8.8570   -5.9110   -9.2640 C.ar  177  PHE177     -0.0042
     52  CE1       10.0440   -5.2440   -6.8820 C.ar  177  PHE177     -0.0003
     53  CE2        9.6100   -4.7410   -9.1690 C.ar  177  PHE177     -0.0003
     54  CZ        10.1870   -4.4000   -7.9950 C.ar  177  PHE177     -0.0000
     55  N          7.2450   -6.5410   -2.5270 N.3   182  ARG182     -0.1245
     56  CA         6.2100   -5.5790   -2.1840 C.3   182  ARG182      0.1563
     57  C          4.8680   -5.7920   -2.8830 C.2   182  ARG182      0.2260
     58  O          3.8980   -5.1570   -2.5230 O.2   182  ARG182     -0.2867
     59  CB         6.6810   -4.1860   -2.5290 C.3   182  ARG182      0.0307
     60  CG         6.9370   -3.9830   -4.0180 C.3   182  ARG182      0.0489
     61  CD         7.9370   -2.8380   -4.2070 C.3   182  ARG182      0.2205
     62  NE         7.4150   -1.6080   -3.5950 N.pl3 182  ARG182     -0.0865
     63  CZ         8.0390   -0.4470   -3.5980 C.cat 182  ARG182      0.5346
     64  NH1        9.2040   -0.3560   -4.2040 N.pl3 182  ARG182      0.1354
     65  NH2        7.5070    0.6040   -2.9900 N.pl3 182  ARG182      0.1354
     66  N         13.9820   -5.0040   -7.3860 N.3   201  GLY201     -0.1225
     67  CA        13.3550   -5.5530   -8.6050 C.3   201  GLY201      0.1811
     68  C         14.3000   -6.4110   -9.4060 C.2   201  GLY201      0.2280
     69  O         15.4840   -6.4030   -9.1290 O.2   201  GLY201     -0.2866
     70  N          4.7340    2.3090  -12.9480 N.3   222  ARG222     -0.1245
     71  CA         5.3890    3.3730  -12.1570 C.3   222  ARG222      0.1563
     72  C          5.3770    4.7760  -12.8520 C.2   222  ARG222      0.2260
     73  O          5.4270    5.8040  -12.1600 O.2   222  ARG222     -0.2867
     74  CB         6.8360    2.9220  -11.9140 C.3   222  ARG222      0.0307
     75  CG         7.5790    3.6350  -10.8730 C.3   222  ARG222      0.0489
     76  CD         8.9490    2.9760  -10.5400 C.3   222  ARG222      0.2205
     77  NE         9.6030    3.6930   -9.4250 N.pl3 222  ARG222     -0.0865
     78  CZ        10.7820    4.2990   -9.4760 C.cat 222  ARG222      0.5346
     79  NH1       11.4760    4.3210  -10.5900 N.pl3 222  ARG222      0.1354
     80  NH2       11.2700    4.9260   -8.3980 N.pl3 222  ARG222      0.1354
     81  N          2.8070    7.7930  -11.6700 N.3   225  ILE225     -0.1231
     82  CA         3.3120    8.4510  -10.4520 C.3   225  ILE225      0.1692
     83  C          4.6080    9.2560  -10.6910 C.2   225  ILE225      0.2591
     84  O          4.7300   10.3900  -10.2610 O.2   225  ILE225     -0.2718
     85  CB         3.5630    7.4030   -9.3990 C.3   225  ILE225      0.0266
     86  CG1        2.2650    6.6260   -9.1740 C.3   225  ILE225      0.0019
     87  CG2        3.9240    8.0460   -8.1670 C.3   225  ILE225      0.0020
     88  CD1        2.3960    5.1420   -8.9760 C.3   225  ILE225      0.0001
     89  N          5.5540    8.6820  -11.4230 N.am  226  LEU226     -0.1980
     90  CA         6.7520    9.4100  -11.8150 C.3   226  LEU226      0.1596
     91  C          6.5060   10.5610  -12.7830 C.2   226  LEU226      0.2287
     92  O          7.4070   11.3320  -13.0460 O.2   226  LEU226     -0.2864
     93  CB         7.7720    8.4640  -12.4330 C.3   226  LEU226      0.0297
     94  CG         8.3130    7.3730  -11.5210 C.3   226  LEU226      0.0022
     95  CD1        9.4160    6.6710  -12.2610 C.3   226  LEU226      0.0001
     96  CD2        8.8010    7.9170  -10.1850 C.3   226  LEU226      0.0001
     97  N          1.1240    0.3290   -5.6540 N.3   261  TYR261     -0.1227
     98  CA         2.4450    0.9470   -5.5490 C.3   261  TYR261      0.1736
     99  C          2.4300    2.0500   -4.4380 C.2   261  TYR261      0.2595
    100  O          3.3620    2.1510   -3.6910 O.2   261  TYR261     -0.2718
    101  CB         2.9290    1.4280   -6.9530 C.3   261  TYR261      0.0548
    102  CG         4.3910    1.8950   -7.0210 C.ar  261  TYR261     -0.0200
    103  CD1        5.4560    0.9730   -6.8820 C.ar  261  TYR261     -0.0009
    104  CD2        4.7130    3.2330   -7.2190 C.ar  261  TYR261     -0.0009
    105  CE1        6.7600    1.3830   -6.9050 C.ar  261  TYR261      0.0417
    106  CE2        6.0450    3.6570   -7.2410 C.ar  261  TYR261      0.0417
    107  CZ         7.0600    2.7280   -7.0950 C.ar  261  TYR261      0.1957
    108  OH         8.3720    3.1430   -7.1290 O.3   261  TYR261     -0.2866
    109  N          1.3590    2.8260   -4.2860 N.am  262  LEU262     -0.1980
    110  CA         1.3250    3.8650   -3.2540 C.3   262  LEU262      0.1596
    111  C          0.8220    3.4250   -1.8480 C.2   262  LEU262      0.2287
    112  O          1.5420    3.5940   -0.8610 O.2   262  LEU262     -0.2864
    113  CB         0.5380    5.1000   -3.7180 C.3   262  LEU262      0.0297
    114  CG         1.1270    6.0540   -4.7450 C.3   262  LEU262      0.0022
    115  CD1        0.0980    7.1360   -5.1440 C.3   262  LEU262      0.0001
    116  CD2        2.3900    6.6930   -4.2450 C.3   262  LEU262      0.0001
@<TRIPOS>BOND
     1    39    38    2
     2    38    37    1
     3    36    37    1
     4    92    91    2
     5    37    40    1
     6    70    71    1
     7    72    73    2
     8    72    71    1
     9    91    90    1
    10    93    90    1
    11    93    94    1
    12    95    94    1
    13    71    74    1
    14    74    75    1
    15    90    89    1
    16    40    41    1
    17    81    82    1
    18    94    96    1
    19    89    83   am
    20    41    42    1
    21    41    43    1
    22    75    76    1
    23    83    82    1
    24    83    84    2
    25    79    78    1
    26    76    77    1
    27    82    85    1
    28    44    45    1
    29    78    77    2
    30    78    80    1
    31    68    69    2
    32    68    67    1
    33    85    86    1
    34    85    87    1
    35    47    46    2
    36    51    53   ar
    37    51    49   ar
    38    86    88    1
    39    53    54   ar
    40    45    46    1
    41    45    48    1
    42    67    66    1
    43    48    49    1
    44    49    50   ar
    45    54    52   ar
    46   106   104   ar
    47   106   107   ar
    48   104   102   ar
    49   108   107    1
    50   107   105   ar
    51   102   101    1
    52   102   103   ar
    53    50    52   ar
    54   101    98    1
    55   105   103   ar
    56    97    98    1
    57    98    99    1
    58     8     6   am
    59   115   114    1
    60   114   116    1
    61   114   113    1
    62    99   109   am
    63    99   100    2
    64   109   110    1
    65    61    60    1
    66    61    62    1
    67    64    63    1
    68     6     5    1
    69     6     7    2
    70     2     5    1
    71     2     1    1
    72     2     3    1
    73    60    59    1
    74   113   110    1
    75    63    62    2
    76    63    65    1
    77     3     4    2
    78    35    33    1
    79   110   111    1
    80    21    20    1
    81    21    22    1
    82    57    58    2
    83    57    56    1
    84    59    56    1
    85    55    56    1
    86    24    22   am
    87    20    17    1
    88    22    23    2
    89    33    32    2
    90    33    34    1
    91    15    13    1
    92    32    31    1
    93   111   112    2
    94    16    17    1
    95    16    11   am
    96    17    18    1
    97     9    10    1
    98    31    30    1
    99    13    10    1
   100    13    14    1
   101    18    19    2
   102    10    11    1
   103    11    12    2
   104    30    29    1
   105    29    26    1
   106    26    27    1
   107    26    25    1
   108    28    27    2
