@<TRIPOS>MOLECULE
tmp/2chwA00.pdb
 185 178 0 0 0
SMALL
GASTEIGER

@<TRIPOS>ATOM
      1  N         52.6390   12.7410   41.2350 N.3   563  LYS563     -0.1231
      2  CA        52.1160   14.0640   41.5850 C.3   563  LYS563      0.1693
      3  C         50.5910   14.0880   41.6550 C.2   563  LYS563      0.2592
      4  O         49.9630   13.0370   41.6740 O.2   563  LYS563     -0.2718
      5  CB        52.6650   15.1480   40.6350 C.3   563  LYS563      0.0285
      6  CG        52.8150   14.7130   39.1730 C.3   563  LYS563      0.0035
      7  CD        53.4380   15.7990   38.2810 C.3   563  LYS563      0.0206
      8  CE        53.9440   15.1890   36.9600 C.3   563  LYS563      0.1093
      9  NZ        53.6510   16.0420   35.7700 N.3   563  LYS563     -0.1314
     10  N         50.0060   15.2820   41.7320 N.am  564  VAL564     -0.1966
     11  CA        48.5510   15.4520   41.8000 C.3   564  VAL564      0.1727
     12  C         48.1320   16.6750   40.9930 C.2   564  VAL564      0.2616
     13  O         48.8440   17.6840   40.9880 O.2   564  VAL564     -0.2715
     14  CB        48.0580   15.5860   43.2730 C.3   564  VAL564      0.0290
     15  CG1       46.8200   16.4770   43.3760 C.3   564  VAL564      0.0023
     16  CG2       47.7490   14.2330   43.8440 C.3   564  VAL564      0.0023
     17  N         46.9870   16.5980   40.3150 N.am  565  MET565     -0.1977
     18  CA        46.5400   17.7310   39.5180 C.3   565  MET565      0.1605
     19  C         45.9490   18.8960   40.3360 C.2   565  MET565      0.2287
     20  O         45.2430   18.6910   41.3300 O.2   565  MET565     -0.2864
     21  CB        45.5780   17.2940   38.4190 C.3   565  MET565      0.0413
     22  CG        45.5660   18.2570   37.2280 C.3   565  MET565      0.0598
     23  SD        44.2830   17.9450   35.9880 S.3   565  MET565     -0.1393
     24  CE        44.3560   19.4800   35.0400 C.3   565  MET565      0.0692
     25  N         43.2380   13.9510   40.9320 N.3   571  PRO571     -0.2102
     26  CA        43.7530   12.6980   40.4170 C.3   571  PRO571      0.1504
     27  C         45.2340   12.5390   40.6860 C.2   571  PRO571      0.2576
     28  O         45.9820   13.5190   40.6700 O.2   571  PRO571     -0.2718
     29  CB        43.4920   12.8000   38.9110 C.3   571  PRO571      0.0282
     30  CG        43.4300   14.2190   38.6170 C.3   571  PRO571      0.0208
     31  CD        42.9790   14.9240   39.8490 C.3   571  PRO571      0.0893
     32  N         45.6440   11.3080   40.9510 N.am  572  LEU572     -0.1966
     33  CA        47.0530   10.9710   40.9860 C.3   572  LEU572      0.1728
     34  C         47.6220   10.8280   39.5680 C.2   572  LEU572      0.2616
     35  O         46.9370   10.3840   38.6470 O.2   572  LEU572     -0.2715
     36  CB        47.2600    9.6680   41.7400 C.3   572  LEU572      0.0311
     37  CG        47.6460    9.7180   43.2150 C.3   572  LEU572      0.0022
     38  CD1       47.0900   10.9410   43.9610 C.3   572  LEU572      0.0001
     39  CD2       47.2240    8.4320   43.8860 C.3   572  LEU572      0.0001
     40  N         48.8750   11.2420   39.4140 N.am  573  TRP573     -0.1974
     41  CA        49.6780   10.9570   38.2520 C.3   573  TRP573      0.1640
     42  C         50.7740   10.0790   38.7900 C.2   573  TRP573      0.2290
     43  O         51.6190   10.5440   39.5400 O.2   573  TRP573     -0.2864
     44  CB        50.2540   12.2590   37.7100 C.3   573  TRP573      0.0576
     45  CG        51.2930   12.1220   36.6690 C.ar  573  TRP573      0.0006
     46  CD1       52.5420   11.5930   36.8210 C.ar  573  TRP573      0.0946
     47  CD2       51.2030   12.5570   35.3140 C.ar  573  TRP573      0.0152
     48  NE1       53.2300   11.6520   35.6390 N.ar  573  TRP573     -0.2442
     49  CE2       52.4360   12.2420   34.6920 C.ar  573  TRP573      0.0810
     50  CE3       50.2010   13.1750   34.5560 C.ar  573  TRP573      0.0012
     51  CZ2       52.6960   12.5250   33.3480 C.ar  573  TRP573      0.0191
     52  CZ3       50.4610   13.4560   33.2110 C.ar  573  TRP573      0.0001
     53  CH2       51.7010   13.1330   32.6260 C.ar  573  TRP573      0.0015
     54  N         47.1870    7.3310   35.5320 N.3   592  ILE592     -0.1245
     55  CA        46.4390    8.3350   36.2790 C.3   592  ILE592      0.1561
     56  C         45.3480    7.6220   37.0440 C.2   592  ILE592      0.2260
     57  O         44.5910    6.8690   36.4590 O.2   592  ILE592     -0.2867
     58  CB        45.7690    9.3680   35.3660 C.3   592  ILE592      0.0252
     59  CG1       46.8030   10.2910   34.7270 C.3   592  ILE592      0.0019
     60  CG2       44.7650   10.2080   36.1440 C.3   592  ILE592      0.0019
     61  CD1       46.2290   11.1670   33.6270 C.3   592  ILE592      0.0001
     62  N         41.9860    8.2900   39.3560 N.3   594  LYS594     -0.1245
     63  CA        41.0500    9.3850   39.4080 C.3   594  LYS594      0.1561
     64  C         39.7460    8.9130   40.0090 C.2   594  LYS594      0.2260
     65  O         39.2450    7.8300   39.6740 O.2   594  LYS594     -0.2867
     66  CB        40.8120    9.8850   38.0020 C.3   594  LYS594      0.0271
     67  CG        40.1500   11.2310   37.8330 C.3   594  LYS594      0.0035
     68  CD        40.5010   11.6780   36.3880 C.3   594  LYS594      0.0206
     69  CE        39.3930   12.4470   35.6770 C.3   594  LYS594      0.1093
     70  NZ        39.2650   13.8720   36.1840 N.3   594  LYS594     -0.1314
     71  N         43.7550    5.9210   24.3790 N.3   628  TYR628     -0.1241
     72  CA        44.4920    5.4520   25.5400 C.3   628  TYR628      0.1605
     73  C         43.6750    4.5010   26.4120 C.2   628  TYR628      0.2264
     74  O         42.4540    4.5150   26.3780 O.2   628  TYR628     -0.2867
     75  CB        44.9090    6.6560   26.3730 C.3   628  TYR628      0.0534
     76  CG        43.7270    7.5430   26.7320 C.ar  628  TYR628     -0.0201
     77  CD1       42.9650    7.3110   27.8950 C.ar  628  TYR628     -0.0009
     78  CD2       43.3490    8.6030   25.8920 C.ar  628  TYR628     -0.0009
     79  CE1       41.8820    8.1110   28.2010 C.ar  628  TYR628      0.0417
     80  CE2       42.2590    9.4170   26.2070 C.ar  628  TYR628      0.0417
     81  CZ        41.5390    9.1620   27.3590 C.ar  628  TYR628      0.1957
     82  OH        40.4770    9.9750   27.6570 O.3   628  TYR628     -0.2866
     83  N         43.6870    5.4960   34.1030 N.3   640  ILE640     -0.1231
     84  CA        43.8390    6.0500   32.7780 C.3   640  ILE640      0.1692
     85  C         45.2950    5.9770   32.3850 C.2   640  ILE640      0.2592
     86  O         46.1730    6.2990   33.1900 O.2   640  ILE640     -0.2718
     87  CB        43.4010    7.5100   32.7910 C.3   640  ILE640      0.0266
     88  CG1       41.9260    7.6070   33.2190 C.3   640  ILE640      0.0019
     89  CG2       43.6740    8.1680   31.4500 C.3   640  ILE640      0.0020
     90  CD1       41.4160    9.0170   33.3780 C.3   640  ILE640      0.0001
     91  N         45.5550    5.5460   31.1520 N.am  641  GLU641     -0.1966
     92  CA        46.9210    5.5070   30.6250 C.3   641  GLU641      0.1733
     93  C         47.4920    6.9080   30.4760 C.2   641  GLU641      0.2616
     94  O         46.8440    7.8090   29.9090 O.2   641  GLU641     -0.2715
     95  CB        46.9450    4.7650   29.2930 C.3   641  GLU641      0.0429
     96  CG        48.1520    5.0170   28.4130 C.3   641  GLU641      0.1163
     97  CD        48.1490    4.1660   27.1280 C.2   641  GLU641      0.3649
     98  OE1       49.2290    3.6710   26.7620 O.co2 641  GLU641     -0.2457
     99  OE2       47.0940    3.9810   26.4760 O.co2 641  GLU641     -0.2457
    100  N         48.6950    7.1060   31.0030 N.am  642  ILE642     -0.1963
    101  CA        49.4130    8.3310   30.7010 C.3   642  ILE642      0.1727
    102  C         49.9940    8.2380   29.3050 C.2   642  ILE642      0.2616
    103  O         50.7170    7.3050   28.9790 O.2   642  ILE642     -0.2715
    104  CB        50.5370    8.6440   31.6980 C.3   642  ILE642      0.0290
    105  CG1       49.9090    8.9440   33.0780 C.3   642  ILE642      0.0022
    106  CG2       51.4290    9.7870   31.1410 C.3   642  ILE642      0.0023
    107  CD1       50.8640    9.2350   34.1900 C.3   642  ILE642      0.0001
    108  N         49.6280    9.2100   28.4840 N.am  643  VAL643     -0.1977
    109  CA        50.2440    9.3910   27.1990 C.3   643  VAL643      0.1596
    110  C         51.4570   10.2480   27.4050 C.2   643  VAL643      0.2287
    111  O         51.3580   11.4070   27.7930 O.2   643  VAL643     -0.2864
    112  CB        49.3020   10.0470   26.1870 C.3   643  VAL643      0.0276
    113  CG1       50.0430   10.3060   24.8640 C.3   643  VAL643      0.0022
    114  CG2       48.0950    9.1570   25.9590 C.3   643  VAL643      0.0022
    115  N         52.7650   14.5720   26.0240 N.3   646  ALA646     -0.1231
    116  CA        51.6060   15.3960   25.6100 C.3   646  ALA646      0.1694
    117  C         51.1920   16.4840   26.6390 C.2   646  ALA646      0.2593
    118  O         51.4250   16.3200   27.8310 O.2   646  ALA646     -0.2718
    119  CB        50.4290   14.4920   25.2570 C.3   646  ALA646      0.0304
    120  N         50.6320   17.6050   26.1720 N.am  647  THR647     -0.1939
    121  CA        50.0250   18.6290   27.0580 C.3   647  THR647      0.2028
    122  C         48.6450   18.9390   26.5510 C.2   647  THR647      0.2642
    123  O         48.1680   18.2770   25.6440 O.2   647  THR647     -0.2714
    124  CB        50.7750   19.9950   27.1390 C.3   647  THR647      0.1808
    125  OG1       51.4880   20.2560   25.9270 O.3   647  THR647     -0.2208
    126  CG2       51.7130   20.0370   28.3170 C.3   647  THR647      0.0379
    127  N         48.0050   19.9450   27.1350 N.am  648  THR648     -0.1950
    128  CA        46.6650   20.3080   26.7330 C.3   648  THR648      0.1897
    129  C         46.7910   21.5440   25.9140 C.2   648  THR648      0.2313
    130  O         47.6550   22.3770   26.1900 O.2   648  THR648     -0.2863
    131  CB        45.7680   20.6150   27.9390 C.3   648  THR648      0.1794
    132  OG1       46.4390   21.5300   28.8030 O.3   648  THR648     -0.2208
    133  CG2       45.4490   19.3430   28.7230 C.3   648  THR648      0.0378
    134  N         47.0800   24.5100   28.1140 N.3   651  LYS651     -0.1245
    135  CA        48.3950   24.8530   28.6750 C.3   651  LYS651      0.1561
    136  C         49.2790   25.5480   27.6400 C.2   651  LYS651      0.2260
    137  O         49.9920   26.4940   27.9710 O.2   651  LYS651     -0.2867
    138  CB        49.1150   23.6420   29.2870 C.3   651  LYS651      0.0271
    139  CG        50.4180   24.0260   30.0300 C.3   651  LYS651      0.0035
    140  CD        51.0360   22.8700   30.8140 C.3   651  LYS651      0.0206
    141  CE        50.7400   22.9760   32.3150 C.3   651  LYS651      0.1093
    142  NZ        51.2090   21.7660   33.0770 N.3   651  LYS651     -0.1314
    143  N         40.7950   22.5900   27.1360 N.3   711  ASP711     -0.1239
    144  CA        41.5080   21.9860   28.2510 C.3   711  ASP711      0.1674
    145  C         41.3100   20.4750   28.2710 C.2   711  ASP711      0.2266
    146  O         42.0220   19.7400   28.9710 O.2   711  ASP711     -0.2867
    147  CB        41.0470   22.6010   29.5710 C.3   711  ASP711      0.1410
    148  CG        41.8970   22.1690   30.7280 C.2   711  ASP711      0.3668
    149  OD1       43.0340   22.6770   30.8590 O.co2 711  ASP711     -0.2456
    150  OD2       41.4330   21.3010   31.4950 O.co2 711  ASP711     -0.2456
    151  N         44.1620   17.2730   23.8640 N.3   714  MET714     -0.1245
    152  CA        45.6000   17.1750   24.0310 C.3   714  MET714      0.1570
    153  C         46.3780   16.9770   22.7190 C.2   714  MET714      0.2261
    154  O         45.8080   16.5480   21.6940 O.2   714  MET714     -0.2867
    155  CB        45.9250   16.0600   25.0160 C.3   714  MET714      0.0387
    156  CG        45.4540   16.3350   26.4510 C.3   714  MET714      0.0595
    157  SD        46.2030   15.1960   27.6390 S.3   714  MET714     -0.1393
    158  CE        47.7700   15.9780   27.9690 C.3   714  MET714      0.0692
    159  N         44.6720   14.4310   20.4480 N.3   722  PHE722     -0.1241
    160  CA        43.6480   13.4930   20.9360 C.3   722  PHE722      0.1605
    161  C         42.7210   14.0990   21.9750 C.2   722  PHE722      0.2264
    162  O         43.1780   14.8000   22.8600 O.2   722  PHE722     -0.2867
    163  CB        44.2860   12.2130   21.4700 C.3   722  PHE722      0.0534
    164  CG        45.2570   12.4220   22.6080 C.ar  722  PHE722     -0.0203
    165  CD1       44.8940   12.1130   23.9060 C.ar  722  PHE722     -0.0042
    166  CD2       46.5500   12.8850   22.3720 C.ar  722  PHE722     -0.0042
    167  CE1       45.7860   12.2770   24.9540 C.ar  722  PHE722     -0.0003
    168  CE2       47.4560   13.0620   23.4210 C.ar  722  PHE722     -0.0003
    169  CZ        47.0750   12.7550   24.7090 C.ar  722  PHE722     -0.0000
    170  N         40.2290   14.0480   25.2560 N.3   724  ILE724     -0.1231
    171  CA        40.2100   13.3030   26.5300 C.3   724  ILE724      0.1692
    172  C         38.9680   13.5660   27.3680 C.2   724  ILE724      0.2592
    173  O         38.0350   14.2410   26.9300 O.2   724  ILE724     -0.2718
    174  CB        41.4450   13.5960   27.4140 C.3   724  ILE724      0.0266
    175  CG1       41.5950   15.1070   27.6600 C.3   724  ILE724      0.0019
    176  CG2       42.6840   12.9880   26.8060 C.3   724  ILE724      0.0020
    177  CD1       42.4660   15.4790   28.8630 C.3   724  ILE724      0.0001
    178  N         38.9870   13.0110   28.5770 N.am  725  ASP725     -0.1974
    179  CA        37.9910   13.2740   29.6190 C.3   725  ASP725      0.1709
    180  C         36.5500   13.2230   29.1320 C.2   725  ASP725      0.2293
    181  O         35.8520   14.2310   29.1100 O.2   725  ASP725     -0.2864
    182  CB        38.2830   14.6100   30.3080 C.3   725  ASP725      0.1436
    183  CG        39.4180   14.5120   31.3040 C.2   725  ASP725      0.3671
    184  OD1       39.9790   15.5740   31.6710 O.co2 725  ASP725     -0.2456
    185  OD2       39.7480   13.3700   31.7160 O.co2 725  ASP725     -0.2456
@<TRIPOS>BOND
     1   159   160    1
     2   160   163    1
     3   160   161    1
     4   163   164    1
     5   154   153    2
     6   161   162    2
     7   166   164   ar
     8   166   168   ar
     9   164   165   ar
    10   153   152    1
    11   168   169   ar
    12   151   152    1
    13   165   167   ar
    14   152   155    1
    15    71    72    1
    16   169   167   ar
    17   113   112    1
    18   155   156    1
    19   170   171    1
    20   119   116    1
    21    72    75    1
    22    72    73    1
    23   116   115    1
    24   116   117    1
    25   123   122    2
    26    78    80   ar
    27    78    76   ar
    28   129   130    2
    29   129   128    1
    30   125   124    1
    31   114   112    1
    32   120   117   am
    33   120   121    1
    34   112   109    1
    35    80    81   ar
    36    75    76    1
    37    74    73    2
    38   156   157    1
    39    99    97   ar
    40   171   172    1
    41   171   174    1
    42   122   121    1
    43   122   127   am
    44   117   118    2
    45    76    77   ar
    46   128   127    1
    47   128   131    1
    48    98    97   ar
    49   176   174    1
    50   173   172    2
    51   121   124    1
    52    97    96    1
    53   143   144    1
    54   124   126    1
    55   109   110    1
    56   109   108    1
    57    81    82    1
    58    81    79   ar
    59   172   178   am
    60   110   111    2
    61   174   175    1
    62   157   158    1
    63   136   137    2
    64   136   135    1
    65   175   177    1
    66    77    79   ar
    67   131   133    1
    68   131   132    1
    69   134   135    1
    70   144   145    1
    71   144   147    1
    72   145   146    2
    73    96    95    1
    74   108   102   am
    75   178   179    1
    76   135   138    1
    77   103   102    2
    78   181   180    2
    79   180   179    1
    80   138   139    1
    81    95    92    1
    82   102   101    1
    83   147   148    1
    84   179   182    1
    85    94    93    2
    86   139   140    1
    87   182   183    1
    88    93    92    1
    89    93   100   am
    90    92    91    1
    91   101   100    1
    92   101   104    1
    93   148   149   ar
    94   148   150   ar
    95   140   141    1
    96   106   104    1
    97    91    85   am
    98   183   184   ar
    99   183   185   ar
   100    89    87    1
   101   104   105    1
   102   141   142    1
   103    85    84    1
   104    85    86    2
   105    53    52   ar
   106    53    51   ar
   107    84    87    1
   108    84    83    1
   109    87    88    1
   110   105   107    1
   111    52    50   ar
   112    88    90    1
   113    51    49   ar
   114    61    59    1
   115    50    47   ar
   116    49    47   ar
   117    49    48   ar
   118    59    58    1
   119    24    23    1
   120    47    45   ar
   121    58    60    1
   122    58    55    1
   123    54    55    1
   124    48    46   ar
   125    69    70    1
   126    69    68    1
   127     9     8    1
   128    23    22    1
   129    55    56    1
   130    68    67    1
   131    57    56    2
   132    45    46   ar
   133    45    44    1
   134     8     7    1
   135    22    21    1
   136    44    41    1
   137    67    66    1
   138    66    63    1
   139    41    42    1
   140    41    40    1
   141     7     6    1
   142    21    18    1
   143    30    29    1
   144    30    31    1
   145    35    34    2
   146    42    43    2
   147    29    26    1
   148     6     5    1
   149    62    63    1
   150    63    64    1
   151    40    34   am
   152    18    17    1
   153    18    19    1
   154    34    33    1
   155    65    64    2
   156    31    25    1
   157    17    12   am
   158    19    20    2
   159    26    27    1
   160    26    25    1
   161     5     2    1
   162    28    27    2
   163    27    32   am
   164    32    33    1
   165    33    36    1
   166    13    12    2
   167    12    11    1
   168     1     2    1
   169     2     3    1
   170     3     4    2
   171     3    10   am
   172    10    11    1
   173    36    37    1
   174    11    14    1
   175    37    39    1
   176    37    38    1
   177    14    15    1
   178    14    16    1
