@<TRIPOS>MOLECULE
tmp/2chxA00.pdb
 183 172 0 0 0
SMALL
GASTEIGER

@<TRIPOS>ATOM
      1  N         53.2420   12.0220   41.7980 N.3   565  LYS565     -0.1245
      2  CA        52.6900   13.2480   42.3510 C.3   565  LYS565      0.1561
      3  C         51.1900   13.1470   42.6100 C.2   565  LYS565      0.2260
      4  O         50.5680   12.1180   42.3910 O.2   565  LYS565     -0.2867
      5  CB        53.0480   14.4910   41.5010 C.3   565  LYS565      0.0271
      6  CG        53.3560   14.2430   40.0210 C.3   565  LYS565      0.0035
      7  CD        52.8790   15.3830   39.1130 C.3   565  LYS565      0.0206
      8  CE        53.6210   15.3800   37.7910 C.3   565  LYS565      0.1093
      9  NZ        52.7740   15.8900   36.6640 N.3   565  LYS565     -0.1314
     10  N         48.0560   15.1080   41.2040 N.3   567  MET567     -0.1245
     11  CA        47.7970   16.0370   40.1260 C.3   567  MET567      0.1570
     12  C         46.9680   17.1780   40.6410 C.2   567  MET567      0.2261
     13  O         46.3170   17.0440   41.6770 O.2   567  MET567     -0.2867
     14  CB        47.0780   15.3250   38.9880 C.3   567  MET567      0.0387
     15  CG        48.0250   14.6760   38.0160 C.3   567  MET567      0.0595
     16  SD        47.1370   13.6500   36.8760 S.3   567  MET567     -0.1393
     17  CE        47.1190   12.1950   37.8710 C.3   567  MET567      0.0692
     18  N         43.6310   13.0430   41.3580 N.3   573  PRO573     -0.2116
     19  CA        44.2520   11.8530   40.8440 C.3   573  PRO573      0.1372
     20  C         45.7290   11.7160   41.2190 C.2   573  PRO573      0.2244
     21  O         46.4560   12.7200   41.3360 O.2   573  PRO573     -0.2868
     22  CB        44.0680   11.9890   39.3250 C.3   573  PRO573      0.0268
     23  CG        43.8390   13.4050   39.0700 C.3   573  PRO573      0.0207
     24  CD        43.0890   13.8790   40.2740 C.3   573  PRO573      0.0892
     25  N         49.3060   10.6310   40.0450 N.3   575  TRP575     -0.1241
     26  CA        50.1940   10.4820   38.9150 C.3   575  TRP575      0.1605
     27  C         51.2660    9.5360   39.3860 C.2   575  TRP575      0.2264
     28  O         52.0980    9.8840   40.2120 O.2   575  TRP575     -0.2867
     29  CB        50.7760   11.8300   38.5470 C.3   575  TRP575      0.0550
     30  CG        51.8210   11.7840   37.5370 C.ar  575  TRP575      0.0003
     31  CD1       53.1060   11.3460   37.7160 C.ar  575  TRP575      0.0946
     32  CD2       51.7300   12.2060   36.1710 C.ar  575  TRP575      0.0152
     33  NE1       53.8150   11.4620   36.5580 N.ar  575  TRP575     -0.2442
     34  CE2       53.0040   11.9840   35.5850 C.ar  575  TRP575      0.0810
     35  CE3       50.6980   12.7330   35.3790 C.ar  575  TRP575      0.0012
     36  CZ2       53.2840   12.2880   34.2640 C.ar  575  TRP575      0.0191
     37  CZ3       50.9650   13.0450   34.0630 C.ar  575  TRP575      0.0001
     38  CH2       52.2600   12.8220   33.5150 C.ar  575  TRP575      0.0015
     39  N         47.7490    6.9990   35.7450 N.3   594  ILE594     -0.1245
     40  CA        46.9450    7.8700   36.5510 C.3   594  ILE594      0.1561
     41  C         46.0480    6.9530   37.3670 C.2   594  ILE594      0.2260
     42  O         45.3600    6.1150   36.8130 O.2   594  ILE594     -0.2867
     43  CB        46.1400    8.8260   35.7190 C.3   594  ILE594      0.0252
     44  CG1       47.0470    9.9310   35.1870 C.3   594  ILE594      0.0019
     45  CG2       45.0750    9.4430   36.5500 C.3   594  ILE594      0.0019
     46  CD1       46.4920   10.6840   34.0140 C.3   594  ILE594      0.0001
     47  N         42.8010    7.1140   39.5790 N.3   596  LYS596     -0.1245
     48  CA        41.7470    8.1320   39.7010 C.3   596  LYS596      0.1561
     49  C         40.5270    7.6350   40.4450 C.2   596  LYS596      0.2260
     50  O         40.0410    6.5480   40.1650 O.2   596  LYS596     -0.2867
     51  CB        41.3330    8.6000   38.3100 C.3   596  LYS596      0.0271
     52  CG        40.0270    9.3990   38.2330 C.3   596  LYS596      0.0035
     53  CD        40.2190   10.8930   38.4790 C.3   596  LYS596      0.0206
     54  CE        39.5640   11.7420   37.3580 C.3   596  LYS596      0.1093
     55  NZ        38.2290   11.2450   36.8450 N.3   596  LYS596     -0.1314
     56  N         33.9450    6.0190   35.4930 N.3   601  LEU601     -0.1245
     57  CA        35.0560    5.6200   34.6060 C.3   601  LEU601      0.1561
     58  C         34.6690    4.6390   33.4760 C.2   601  LEU601      0.2260
     59  O         35.4460    4.3880   32.5750 O.2   601  LEU601     -0.2867
     60  CB        36.2330    5.1250   35.4270 C.3   601  LEU601      0.0270
     61  CG        37.6260    5.5440   34.9550 C.3   601  LEU601      0.0019
     62  CD1       37.7850    7.0380   34.8780 C.3   601  LEU601      0.0001
     63  CD2       38.6470    4.9690   35.8910 C.3   601  LEU601      0.0001
     64  N         34.0890    6.5110   29.8320 N.3   604  ASP604     -0.1239
     65  CA        35.3860    6.6690   29.2320 C.3   604  ASP604      0.1674
     66  C         35.8160    5.3990   28.5040 C.2   604  ASP604      0.2266
     67  O         36.1970    5.4790   27.3370 O.2   604  ASP604     -0.2867
     68  CB        36.4000    7.0560   30.2900 C.3   604  ASP604      0.1410
     69  CG        36.4390    8.5480   30.5350 C.2   604  ASP604      0.3668
     70  OD1       35.8190    9.0450   31.5240 O.co2 604  ASP604     -0.2456
     71  OD2       37.0900    9.2350   29.7190 O.co2 604  ASP604     -0.2456
     72  N         43.8420    6.2460   24.4210 N.3   630  TYR630     -0.1241
     73  CA        44.6750    5.7630   25.5440 C.3   630  TYR630      0.1605
     74  C         44.0350    4.6430   26.4030 C.2   630  TYR630      0.2264
     75  O         42.8100    4.5150   26.4360 O.2   630  TYR630     -0.2867
     76  CB        45.0010    6.9580   26.4410 C.3   630  TYR630      0.0534
     77  CG        43.7820    7.7200   26.9150 C.ar  630  TYR630     -0.0201
     78  CD1       43.1980    7.4100   28.1060 C.ar  630  TYR630     -0.0009
     79  CD2       43.2280    8.7690   26.1390 C.ar  630  TYR630     -0.0009
     80  CE1       42.1000    8.1210   28.5660 C.ar  630  TYR630      0.0417
     81  CE2       42.1150    9.4740   26.5500 C.ar  630  TYR630      0.0417
     82  CZ        41.5440    9.1470   27.7800 C.ar  630  TYR630      0.1957
     83  OH        40.4420    9.8540   28.2840 O.3   630  TYR630     -0.2866
     84  N         42.5570    2.6440   29.5580 N.3   632  CYS632     -0.1235
     85  CA        41.7030    3.1820   30.6030 C.3   632  CYS632      0.1677
     86  C         40.7850    2.0740   31.0640 C.2   632  CYS632      0.2270
     87  O         39.9430    1.6270   30.3290 O.2   632  CYS632     -0.2867
     88  CB        40.9360    4.3590   30.0180 C.3   632  CYS632      0.0956
     89  SG        39.5590    4.8920   30.9260 S.3   632  CYS632     -0.0801
     90  N         44.4520    4.7280   34.3660 N.3   642  ILE642     -0.1231
     91  CA        44.4910    5.3650   33.0640 C.3   642  ILE642      0.1692
     92  C         45.9270    5.4780   32.6220 C.2   642  ILE642      0.2592
     93  O         46.8010    5.8940   33.3840 O.2   642  ILE642     -0.2718
     94  CB        43.8320    6.7580   33.0530 C.3   642  ILE642      0.0266
     95  CG1       42.4150    6.6760   33.6380 C.3   642  ILE642      0.0019
     96  CG2       43.8200    7.3010   31.6400 C.3   642  ILE642      0.0020
     97  CD1       41.8400    7.9940   34.1170 C.3   642  ILE642      0.0001
     98  N         46.1640    5.1120   31.3770 N.am  643  GLU643     -0.1966
     99  CA        47.4820    5.2940   30.7710 C.3   643  GLU643      0.1733
    100  C         47.8460    6.7640   30.6480 C.2   643  GLU643      0.2616
    101  O         47.0070    7.5870   30.2510 O.2   643  GLU643     -0.2715
    102  CB        47.4680    4.6700   29.3810 C.3   643  GLU643      0.0429
    103  CG        48.7730    4.7450   28.6210 C.3   643  GLU643      0.1163
    104  CD        48.6150    4.4550   27.1390 C.2   643  GLU643      0.3649
    105  OE1       49.5960    4.6790   26.4490 O.co2 643  GLU643     -0.2457
    106  OE2       47.5570    4.0210   26.6210 O.co2 643  GLU643     -0.2457
    107  N         49.0970    7.0650   30.9950 N.am  644  ILE644     -0.1963
    108  CA        49.7590    8.3300   30.7010 C.3   644  ILE644      0.1727
    109  C         50.5330    8.2340   29.3780 C.2   644  ILE644      0.2616
    110  O         51.4700    7.4400   29.2670 O.2   644  ILE644     -0.2715
    111  CB        50.7750    8.6970   31.8250 C.3   644  ILE644      0.0290
    112  CG1       50.0280    9.0170   33.1430 C.3   644  ILE644      0.0022
    113  CG2       51.7160    9.8640   31.3800 C.3   644  ILE644      0.0023
    114  CD1       50.9340    9.1870   34.3660 C.3   644  ILE644      0.0001
    115  N         50.1410    9.0400   28.3890 N.am  645  VAL645     -0.1977
    116  CA        50.8570    9.1440   27.1390 C.3   645  VAL645      0.1596
    117  C         52.0250   10.0680   27.3480 C.2   645  VAL645      0.2287
    118  O         51.8750   11.1610   27.9030 O.2   645  VAL645     -0.2864
    119  CB        49.9820    9.7670   26.0390 C.3   645  VAL645      0.0276
    120  CG1       50.8390   10.3090   24.8790 C.3   645  VAL645      0.0022
    121  CG2       48.9370    8.7660   25.5510 C.3   645  VAL645      0.0022
    122  N         53.3220   14.6160   26.5510 N.3   648  ALA648     -0.1231
    123  CA        52.0220   15.1400   26.1790 C.3   648  ALA648      0.1694
    124  C         51.6490   16.2840   27.1220 C.2   648  ALA648      0.2593
    125  O         51.9580   16.2570   28.3300 O.2   648  ALA648     -0.2718
    126  CB        50.9770   14.0180   26.2340 C.3   648  ALA648      0.0304
    127  N         50.9980   17.2960   26.5740 N.am  649  THR649     -0.1939
    128  CA        50.5420   18.3820   27.4030 C.3   649  THR649      0.2028
    129  C         49.2250   18.9080   26.8770 C.2   649  THR649      0.2642
    130  O         48.9000   18.7970   25.6700 O.2   649  THR649     -0.2714
    131  CB        51.5860   19.5590   27.5760 C.3   649  THR649      0.1808
    132  OG1       51.2970   20.5990   26.6460 O.3   649  THR649     -0.2208
    133  CG2       53.0240   19.0890   27.3870 C.3   649  THR649      0.0379
    134  N         48.4740   19.4510   27.8280 N.am  650  THR650     -0.1950
    135  CA        47.1300   19.9700   27.6550 C.3   650  THR650      0.1897
    136  C         47.1960   21.2160   26.7820 C.2   650  THR650      0.2313
    137  O         48.1810   21.9210   26.8460 O.2   650  THR650     -0.2863
    138  CB        46.5870   20.2760   29.0890 C.3   650  THR650      0.1794
    139  OG1       46.0700   19.0750   29.6910 O.3   650  THR650     -0.2208
    140  CG2       45.5480   21.3610   29.0990 C.3   650  THR650      0.0378
    141  N         40.9390   22.2790   28.4390 N.3   713  ASP713     -0.1239
    142  CA        41.5490   21.5790   29.5310 C.3   713  ASP713      0.1674
    143  C         41.6300   20.0690   29.2300 C.2   713  ASP713      0.2266
    144  O         42.5310   19.3630   29.7010 O.2   713  ASP713     -0.2867
    145  CB        40.6870   21.8030   30.7600 C.3   713  ASP713      0.1410
    146  CG        41.5050   21.9990   31.9730 C.2   713  ASP713      0.3668
    147  OD1       42.7400   21.9070   31.7870 O.co2 713  ASP713     -0.2456
    148  OD2       40.9430   22.2580   33.0790 O.co2 713  ASP713     -0.2456
    149  N         44.6030   17.3470   24.5040 N.3   716  MET716     -0.1245
    150  CA        46.0250   17.2450   24.6940 C.3   716  MET716      0.1570
    151  C         46.7730   17.1930   23.3440 C.2   716  MET716      0.2261
    152  O         46.1450   17.0320   22.2930 O.2   716  MET716     -0.2867
    153  CB        46.3210   16.0460   25.5790 C.3   716  MET716      0.0387
    154  CG        45.7180   16.1600   27.0000 C.3   716  MET716      0.0595
    155  SD        46.5750   15.0560   28.0920 S.3   716  MET716     -0.1393
    156  CE        47.9600   16.0490   28.5720 C.3   716  MET716      0.0692
    157  N         44.8820   14.8420   20.9900 N.3   724  PHE724     -0.1241
    158  CA        43.9380   13.8250   21.4850 C.3   724  PHE724      0.1605
    159  C         43.0100   14.3020   22.6300 C.2   724  PHE724      0.2264
    160  O         43.4520   15.0420   23.5100 O.2   724  PHE724     -0.2867
    161  CB        44.6660   12.5180   21.8400 C.3   724  PHE724      0.0534
    162  CG        45.6610   12.6310   22.9910 C.ar  724  PHE724     -0.0203
    163  CD1       45.3510   12.1010   24.2390 C.ar  724  PHE724     -0.0042
    164  CD2       46.9310   13.1990   22.8060 C.ar  724  PHE724     -0.0042
    165  CE1       46.2670   12.1690   25.3220 C.ar  724  PHE724     -0.0003
    166  CE2       47.8600   13.2810   23.8670 C.ar  724  PHE724     -0.0003
    167  CZ        47.5260   12.7760   25.1480 C.ar  724  PHE724     -0.0000
    168  N         40.6900   13.9570   25.9850 N.3   726  ILE726     -0.1231
    169  CA        40.6670   13.1600   27.1970 C.3   726  ILE726      0.1692
    170  C         39.3490   13.3630   27.9860 C.2   726  ILE726      0.2592
    171  O         38.5380   14.2360   27.6660 O.2   726  ILE726     -0.2718
    172  CB        41.9390   13.3690   28.1020 C.3   726  ILE726      0.0266
    173  CG1       42.0290   14.8160   28.6580 C.3   726  ILE726      0.0019
    174  CG2       43.2220   12.9780   27.3660 C.3   726  ILE726      0.0020
    175  CD1       42.8400   14.9600   29.9620 C.3   726  ILE726      0.0001
    176  N         39.1360   12.5010   28.9800 N.am  727  ASP727     -0.1974
    177  CA        38.0870   12.6530   30.0370 C.3   727  ASP727      0.1709
    178  C         36.6480   12.7620   29.5160 C.2   727  ASP727      0.2293
    179  O         35.9700   13.7340   29.7120 O.2   727  ASP727     -0.2864
    180  CB        38.4210   13.8150   30.9990 C.3   727  ASP727      0.1436
    181  CG        37.7000   13.6810   32.3490 C.2   727  ASP727      0.3671
    182  OD1       37.7150   14.6490   33.1820 O.co2 727  ASP727     -0.2456
    183  OD2       37.1350   12.5740   32.5880 O.co2 727  ASP727     -0.2456
@<TRIPOS>BOND
     1   157   158    1
     2   158   161    1
     3   158   159    1
     4   161   162    1
     5   152   151    2
     6   159   160    2
     7   164   162   ar
     8   164   166   ar
     9   162   163   ar
    10   151   150    1
    11   166   167   ar
    12   163   165   ar
    13    72    73    1
    14   149   150    1
    15   150   153    1
    16   120   119    1
    17   167   165   ar
    18    73    74    1
    19    73    76    1
    20   121   119    1
    21   153   154    1
    22   130   129    2
    23   168   169    1
    24   119   116    1
    25    79    81   ar
    26    79    77   ar
    27   123   126    1
    28   123   122    1
    29   123   124    1
    30    74    75    2
    31    76    77    1
    32   105   104   ar
    33    81    82   ar
    34   127   124   am
    35   127   128    1
    36   106   104   ar
    37   132   131    1
    38   136   137    2
    39   136   135    1
    40   129   128    1
    41   129   134   am
    42    77    78   ar
    43   154   155    1
    44   124   125    2
    45   116   117    1
    46   116   115    1
    47   104   103    1
    48   169   170    1
    49   169   172    1
    50    67    66    2
    51   117   118    2
    52   174   172    1
    53   133   131    1
    54   128   131    1
    55   135   134    1
    56   135   138    1
    57   171   170    2
    58    82    83    1
    59    82    80   ar
    60   170   176   am
    61   155   156    1
    62   172   173    1
    63    78    80   ar
    64   115   109   am
    65   141   142    1
    66    66    65    1
    67   103   102    1
    68   173   175    1
    69   176   177    1
    70   138   140    1
    71   138   139    1
    72   143   142    1
    73   143   144    2
    74    65    64    1
    75    65    68    1
    76   110   109    2
    77   109   108    1
    78   102    99    1
    79   178   179    2
    80   178   177    1
    81   142   145    1
    82    84    85    1
    83    71    69   ar
    84    88    85    1
    85    88    89    1
    86   177   180    1
    87   101   100    2
    88    68    69    1
    89    87    86    2
    90    69    70   ar
    91    85    86    1
    92   100    99    1
    93   100   107   am
    94   108   107    1
    95   108   111    1
    96   145   146    1
    97    99    98    1
    98   180   181    1
    99    98    92   am
   100   113   111    1
   101    96    94    1
   102   147   146   ar
   103   111   112    1
   104   146   148   ar
   105   181   183   ar
   106   181   182   ar
   107    59    58    2
   108    92    91    1
   109    92    93    2
   110    94    91    1
   111    94    95    1
   112    91    90    1
   113   112   114    1
   114    58    57    1
   115    38    37   ar
   116    38    36   ar
   117    95    97    1
   118    46    44    1
   119    37    35   ar
   120    36    34   ar
   121    57    60    1
   122    57    56    1
   123    62    61    1
   124    61    60    1
   125    61    63    1
   126    44    43    1
   127    35    32   ar
   128    34    32   ar
   129    34    33   ar
   130    43    45    1
   131    43    40    1
   132    39    40    1
   133    32    30   ar
   134    40    41    1
   135    33    31   ar
   136     9     8    1
   137    42    41    2
   138    55    54    1
   139    16    17    1
   140    16    15    1
   141    54    53    1
   142    30    31   ar
   143    30    29    1
   144     8     7    1
   145    15    14    1
   146    52    51    1
   147    52    53    1
   148    51    48    1
   149    29    26    1
   150    26    27    1
   151    26    25    1
   152    14    11    1
   153    23    22    1
   154    23    24    1
   155     7     6    1
   156    22    19    1
   157    27    28    2
   158    47    48    1
   159    48    49    1
   160     6     5    1
   161    11    12    1
   162    11    10    1
   163    50    49    2
   164    24    18    1
   165    12    13    2
   166    19    20    1
   167    19    18    1
   168    20    21    2
   169     5     2    1
   170     1     2    1
   171     2     3    1
   172     4     3    2
