@<TRIPOS>MOLECULE
tmp/2chzA00.pdb
 194 185 0 0 0
SMALL
GASTEIGER

@<TRIPOS>ATOM
      1  N         47.8580   15.9690   40.9230 N.3   565  MET565     -0.1245
      2  CA        47.8430   17.0090   39.8870 C.3   565  MET565      0.1570
      3  C         46.7030   18.0120   40.0310 C.2   565  MET565      0.2261
      4  O         45.6890   17.7260   40.6660 O.2   565  MET565     -0.2867
      5  CB        47.8820   16.3970   38.4780 C.3   565  MET565      0.0387
      6  CG        47.2970   14.9970   38.3810 C.3   565  MET565      0.0595
      7  SD        47.6010   14.1480   36.8130 S.3   565  MET565     -0.1393
      8  CE        47.3970   12.4680   37.3540 C.3   565  MET565      0.0692
      9  N         44.1390   18.9620   38.8620 N.3   567  SER567     -0.1202
     10  CA        42.7320   18.5770   38.6610 C.3   567  SER567      0.2020
     11  C         41.8300   18.8950   39.8610 C.2   567  SER567      0.2618
     12  O         42.2670   18.8180   41.0140 O.2   567  SER567     -0.2717
     13  CB        42.6310   17.0860   38.3250 C.3   567  SER567      0.2103
     14  OG        42.8970   16.8320   36.9510 O.3   567  SER567     -0.2182
     15  N         40.5750   19.2480   39.5820 N.am  568  LYS568     -0.1979
     16  CA        39.6100   19.6010   40.6390 C.3   568  LYS568      0.1596
     17  C         39.1920   18.4020   41.4940 C.2   568  LYS568      0.2287
     18  O         38.7260   18.5650   42.6280 O.2   568  LYS568     -0.2864
     19  CB        38.3920   20.3700   40.0870 C.3   568  LYS568      0.0298
     20  CG        38.2610   20.4380   38.5580 C.3   568  LYS568      0.0038
     21  CD        37.2830   19.4160   38.0040 C.3   568  LYS568      0.0206
     22  CE        37.9920   18.1500   37.5480 C.3   568  LYS568      0.1093
     23  NZ        37.1200   17.3100   36.6770 N.3   568  LYS568     -0.1314
     24  N         43.7070   13.2040   41.1860 N.3   571  PRO571     -0.2116
     25  CA        44.2230   11.9590   40.6440 C.3   571  PRO571      0.1372
     26  C         45.7220   11.7820   40.8540 C.2   571  PRO571      0.2244
     27  O         46.4820   12.7430   40.7470 O.2   571  PRO571     -0.2868
     28  CB        43.8940   12.0630   39.1530 C.3   571  PRO571      0.0268
     29  CG        43.8160   13.5140   38.8590 C.3   571  PRO571      0.0207
     30  CD        43.5730   14.2440   40.1480 C.3   571  PRO571      0.0892
     31  N         49.3640   10.6670   39.7740 N.3   573  TRP573     -0.1241
     32  CA        50.2170   10.4500   38.6210 C.3   573  TRP573      0.1605
     33  C         51.3330    9.5490   39.0970 C.2   573  TRP573      0.2264
     34  O         52.1370    9.9400   39.9310 O.2   573  TRP573     -0.2867
     35  CB        50.7580   11.7820   38.1120 C.3   573  TRP573      0.0550
     36  CG        51.9100   11.6940   37.1600 C.ar  573  TRP573      0.0003
     37  CD1       53.1460   11.1620   37.4040 C.ar  573  TRP573      0.0946
     38  CD2       51.9460   12.1930   35.8270 C.ar  573  TRP573      0.0152
     39  NE1       53.9400   11.2810   36.2980 N.ar  573  TRP573     -0.2442
     40  CE2       53.2300   11.9110   35.3120 C.ar  573  TRP573      0.0810
     41  CE3       51.0110   12.8360   35.0060 C.ar  573  TRP573      0.0012
     42  CZ2       53.6090   12.2540   34.0200 C.ar  573  TRP573      0.0191
     43  CZ3       51.3840   13.1790   33.7180 C.ar  573  TRP573      0.0001
     44  CH2       52.6780   12.8890   33.2390 C.ar  573  TRP573      0.0015
     45  N         47.8150    6.9680   35.4530 N.3   592  ILE592     -0.1245
     46  CA        47.0300    7.8700   36.2860 C.3   592  ILE592      0.1561
     47  C         46.0370    7.0540   37.1130 C.2   592  ILE592      0.2260
     48  O         45.6020    5.9800   36.6880 O.2   592  ILE592     -0.2867
     49  CB        46.3220    8.9510   35.4410 C.3   592  ILE592      0.0252
     50  CG1       47.3430    9.9970   34.9870 C.3   592  ILE592      0.0019
     51  CG2       45.1670    9.6080   36.2100 C.3   592  ILE592      0.0019
     52  CD1       46.8100   11.0040   34.0130 C.3   592  ILE592      0.0001
     53  N         42.5020    7.6500   39.2920 N.3   594  LYS594     -0.1245
     54  CA        41.5080    8.7030   39.4600 C.3   594  LYS594      0.1561
     55  C         40.2180    8.2570   40.1480 C.2   594  LYS594      0.2260
     56  O         39.6000    7.2690   39.7490 O.2   594  LYS594     -0.2867
     57  CB        41.2500    9.3640   38.1010 C.3   594  LYS594      0.0271
     58  CG        39.9110   10.0350   37.9080 C.3   594  LYS594      0.0035
     59  CD        39.8810   11.4570   38.4310 C.3   594  LYS594      0.0206
     60  CE        39.1230   12.3750   37.4650 C.3   594  LYS594      0.1093
     61  NZ        37.9380   11.7320   36.8150 N.3   594  LYS594     -0.1314
     62  N         34.1960    5.7640   35.2700 N.3   599  LEU599     -0.1245
     63  CA        35.0960    5.4940   34.1380 C.3   599  LEU599      0.1561
     64  C         34.5290    4.5980   33.0370 C.2   599  LEU599      0.2260
     65  O         35.1910    4.3530   32.0330 O.2   599  LEU599     -0.2867
     66  CB        36.4160    4.9080   34.6480 C.3   599  LEU599      0.0270
     67  CG        37.6570    5.7960   34.7940 C.3   599  LEU599      0.0019
     68  CD1       37.3370    7.2440   35.1240 C.3   599  LEU599      0.0001
     69  CD2       38.5490    5.2070   35.8450 C.3   599  LEU599      0.0001
     70  N         33.8810    6.4030   29.9090 N.3   602  ASP602     -0.1239
     71  CA        35.1470    6.6180   29.2260 C.3   602  ASP602      0.1674
     72  C         35.5860    5.3600   28.4910 C.2   602  ASP602      0.2266
     73  O         36.1290    5.4400   27.3940 O.2   602  ASP602     -0.2867
     74  CB        36.2340    7.1170   30.1870 C.3   602  ASP602      0.1410
     75  CG        36.1370    8.6220   30.4560 C.2   602  ASP602      0.3668
     76  OD1       35.5170    9.0210   31.4680 O.co2 602  ASP602     -0.2456
     77  OD2       36.6720    9.4160   29.6520 O.co2 602  ASP602     -0.2456
     78  N         43.6880    6.1400   24.4110 N.3   628  TYR628     -0.1241
     79  CA        44.5490    5.7860   25.5310 C.3   628  TYR628      0.1605
     80  C         43.9200    4.7050   26.3950 C.2   628  TYR628      0.2264
     81  O         42.7000    4.6300   26.5000 O.2   628  TYR628     -0.2867
     82  CB        44.8670    7.0210   26.3630 C.3   628  TYR628      0.0534
     83  CG        43.6540    7.7880   26.8500 C.ar  628  TYR628     -0.0201
     84  CD1       43.0860    7.5070   28.0850 C.ar  628  TYR628     -0.0009
     85  CD2       43.0880    8.8110   26.0780 C.ar  628  TYR628     -0.0009
     86  CE1       41.9900    8.2050   28.5340 C.ar  628  TYR628      0.0417
     87  CE2       41.9860    9.5210   26.5210 C.ar  628  TYR628      0.0417
     88  CZ        41.4420    9.2090   27.7550 C.ar  628  TYR628      0.1957
     89  OH        40.3480    9.9000   28.2270 O.3   628  TYR628     -0.2866
     90  N         44.1840    4.9020   34.2110 N.3   640  ILE640     -0.1231
     91  CA        44.3340    5.5180   32.9020 C.3   640  ILE640      0.1692
     92  C         45.7980    5.4680   32.4860 C.2   640  ILE640      0.2592
     93  O         46.6970    5.5270   33.3260 O.2   640  ILE640     -0.2718
     94  CB        43.8740    6.9910   32.9140 C.3   640  ILE640      0.0266
     95  CG1       42.3930    7.0950   33.3050 C.3   640  ILE640      0.0019
     96  CG2       44.1230    7.6440   31.5540 C.3   640  ILE640      0.0020
     97  CD1       41.9470    8.4820   33.7600 C.3   640  ILE640      0.0001
     98  N         46.0290    5.3530   31.1850 N.am  641  GLU641     -0.1966
     99  CA        47.3770    5.3230   30.6520 C.3   641  GLU641      0.1733
    100  C         47.9010    6.7320   30.4710 C.2   641  GLU641      0.2616
    101  O         47.1870    7.6030   29.9730 O.2   641  GLU641     -0.2715
    102  CB        47.3670    4.6090   29.3180 C.3   641  GLU641      0.0429
    103  CG        48.5470    4.8830   28.4370 C.3   641  GLU641      0.1163
    104  CD        48.4510    4.1210   27.1490 C.2   641  GLU641      0.3649
    105  OE1       49.2530    3.1930   26.9660 O.co2 641  GLU641     -0.2457
    106  OE2       47.5490    4.4170   26.3410 O.co2 641  GLU641     -0.2457
    107  N         49.1470    6.9490   30.8790 N.am  642  ILE642     -0.1963
    108  CA        49.8140    8.2140   30.6390 C.3   642  ILE642      0.1727
    109  C         50.4500    8.1750   29.2650 C.2   642  ILE642      0.2616
    110  O         51.3230    7.3600   28.9950 O.2   642  ILE642     -0.2715
    111  CB        50.8870    8.5390   31.7190 C.3   642  ILE642      0.0290
    112  CG1       50.2180    8.7220   33.0910 C.3   642  ILE642      0.0022
    113  CG2       51.7070    9.7740   31.3160 C.3   642  ILE642      0.0023
    114  CD1       51.1480    9.1320   34.2080 C.3   642  ILE642      0.0001
    115  N         49.9750    9.0460   28.3890 N.am  643  VAL643     -0.1963
    116  CA        50.6440    9.2980   27.1340 C.3   643  VAL643      0.1727
    117  C         51.8000   10.2380   27.4370 C.2   643  VAL643      0.2616
    118  O         51.5920   11.3740   27.8550 O.2   643  VAL643     -0.2715
    119  CB        49.7070    9.9590   26.1170 C.3   643  VAL643      0.0290
    120  CG1       50.4660   10.3030   24.8390 C.3   643  VAL643      0.0023
    121  CG2       48.5330    9.0490   25.8280 C.3   643  VAL643      0.0023
    122  N         53.0150    9.7440   27.2310 N.am  644  LYS644     -0.1963
    123  CA        54.2220   10.5040   27.5210 C.3   644  LYS644      0.1728
    124  C         54.3650   11.6720   26.5520 C.2   644  LYS644      0.2616
    125  O         53.9950   11.5670   25.3730 O.2   644  LYS644     -0.2715
    126  CB        55.4540    9.6000   27.4360 C.3   644  LYS644      0.0311
    127  CG        55.3960    8.3530   28.3060 C.3   644  LYS644      0.0038
    128  CD        55.9990    8.5980   29.6840 C.3   644  LYS644      0.0206
    129  CE        55.7230    7.4200   30.6190 C.3   644  LYS644      0.1093
    130  NZ        56.4840    7.5270   31.9060 N.3   644  LYS644     -0.1314
    131  N         54.8770   12.7870   27.0710 N.am  645  ASP645     -0.1957
    132  CA        55.2080   13.9680   26.2640 C.3   645  ASP645      0.1840
    133  C         54.0150   14.6790   25.6220 C.2   645  ASP645      0.2621
    134  O         54.1210   15.2340   24.5200 O.2   645  ASP645     -0.2715
    135  CB        56.2760   13.6270   25.2130 C.3   645  ASP645      0.1450
    136  CG        57.6460   13.4380   25.8260 C.2   645  ASP645      0.3671
    137  OD1       58.2220   14.4440   26.3070 O.co2 645  ASP645     -0.2456
    138  OD2       58.1420   12.2900   25.8280 O.co2 645  ASP645     -0.2456
    139  N         52.8880   14.6680   26.3250 N.am  646  ALA646     -0.1977
    140  CA        51.7120   15.4080   25.8900 C.3   646  ALA646      0.1597
    141  C         51.3470   16.5320   26.8730 C.2   646  ALA646      0.2287
    142  O         51.7290   16.5020   28.0430 O.2   646  ALA646     -0.2864
    143  CB        50.5480   14.4640   25.6830 C.3   646  ALA646      0.0319
    144  N         40.9210   22.4370   27.7960 N.3   710  ASP710     -0.1225
    145  CA        41.6690   21.7010   28.8150 C.3   710  ASP710      0.1805
    146  C         41.4070   20.1840   28.7290 C.2   710  ASP710      0.2597
    147  O         42.1030   19.3680   29.3610 O.2   710  ASP710     -0.2718
    148  CB        41.3480   22.2380   30.2120 C.3   710  ASP710      0.1424
    149  CG        42.2780   21.6870   31.2740 C.2   710  ASP710      0.3668
    150  OD1       43.4620   22.1010   31.3240 O.co2 710  ASP710     -0.2456
    151  OD2       41.8200   20.8310   32.0610 O.co2 710  ASP710     -0.2456
    152  N         40.3950   19.8370   27.9380 N.am  711  ASN711     -0.1974
    153  CA        39.9830   18.4710   27.6960 C.3   711  ASN711      0.1688
    154  C         40.5270   17.9310   26.3690 C.2   711  ASN711      0.2292
    155  O         40.1030   16.8680   25.9050 O.2   711  ASN711     -0.2864
    156  CB        38.4450   18.3900   27.7110 C.3   711  ASN711      0.1181
    157  CG        37.8510   18.5100   29.1240 C.2   711  ASN711      0.2629
    158  OD1       36.8100   19.1570   29.3200 O.2   711  ASN711     -0.2716
    159  ND2       38.5000   17.8680   30.1080 N.am  711  ASN711     -0.0877
    160  N         44.3600   17.3490   24.2360 N.3   713  MET713     -0.1245
    161  CA        45.8000   17.3470   24.4020 C.3   713  MET713      0.1570
    162  C         46.5110   17.1630   23.0730 C.2   713  MET713      0.2261
    163  O         45.8700   16.8790   22.0570 O.2   713  MET713     -0.2867
    164  CB        46.2140   16.2650   25.3950 C.3   713  MET713      0.0387
    165  CG        45.7410   16.5370   26.8010 C.3   713  MET713      0.0595
    166  SD        46.2180   15.2500   27.9510 S.3   713  MET713     -0.1393
    167  CE        47.8570   15.7630   28.4270 C.3   713  MET713      0.0692
    168  N         44.6550   14.6450   20.7450 N.3   721  PHE721     -0.1241
    169  CA        43.6900   13.6570   21.2430 C.3   721  PHE721      0.1605
    170  C         42.8210   14.1170   22.4080 C.2   721  PHE721      0.2264
    171  O         43.3250   14.6480   23.4010 O.2   721  PHE721     -0.2867
    172  CB        44.3990   12.3520   21.6220 C.3   721  PHE721      0.0534
    173  CG        45.4390   12.5100   22.6880 C.ar  721  PHE721     -0.0203
    174  CD1       45.2130   12.0260   23.9580 C.ar  721  PHE721     -0.0042
    175  CD2       46.6510   13.1360   22.4190 C.ar  721  PHE721     -0.0042
    176  CE1       46.1740   12.1600   24.9490 C.ar  721  PHE721     -0.0003
    177  CE2       47.6150   13.2830   23.4030 C.ar  721  PHE721     -0.0003
    178  CZ        47.3750   12.7930   24.6720 C.ar  721  PHE721     -0.0000
    179  N         40.4690   13.8810   25.7530 N.3   723  ILE723     -0.1231
    180  CA        40.5190   13.1200   27.0070 C.3   723  ILE723      0.1692
    181  C         39.2620   13.3660   27.8480 C.2   723  ILE723      0.2592
    182  O         38.3870   14.1220   27.4390 O.2   723  ILE723     -0.2718
    183  CB        41.8050   13.4110   27.8490 C.3   723  ILE723      0.0266
    184  CG1       41.8500   14.8640   28.3460 C.3   723  ILE723      0.0019
    185  CG2       43.0690   13.0520   27.0710 C.3   723  ILE723      0.0020
    186  CD1       42.7810   15.0820   29.5380 C.3   723  ILE723      0.0001
    187  N         39.1820   12.7110   29.0050 N.am  724  ASP724     -0.1974
    188  CA        38.1100   12.9010   30.0170 C.3   724  ASP724      0.1709
    189  C         36.6780   12.9890   29.4710 C.2   724  ASP724      0.2293
    190  O         36.0110   14.0110   29.5900 O.2   724  ASP724     -0.2864
    191  CB        38.4280   14.0850   30.9560 C.3   724  ASP724      0.1436
    192  CG        37.5780   14.0800   32.2500 C.2   724  ASP724      0.3671
    193  OD1       37.9340   14.8060   33.2170 O.co2 724  ASP724     -0.2456
    194  OD2       36.5510   13.3550   32.3090 O.co2 724  ASP724     -0.2456
@<TRIPOS>BOND
     1   168   169    1
     2   169   172    1
     3   169   170    1
     4   172   173    1
     5   163   162    2
     6   170   171    2
     7   175   173   ar
     8   175   177   ar
     9   173   174   ar
    10   162   161    1
    11   177   178   ar
    12   174   176   ar
    13   160   161    1
    14   161   164    1
    15    78    79    1
    16   134   133    2
    17   178   176   ar
    18   120   119    1
    19   135   136    1
    20   135   132    1
    21   125   124    2
    22   164   165    1
    23    79    82    1
    24    79    80    1
    25   133   132    1
    26   133   139   am
    27   143   140    1
    28   179   180    1
    29   136   138   ar
    30   136   137   ar
    31   121   119    1
    32   140   139    1
    33   140   141    1
    34   155   154    2
    35    85    87   ar
    36    85    83   ar
    37   119   116    1
    38   132   131    1
    39   106   104   ar
    40    82    83    1
    41   154   153    1
    42    80    81    2
    43    87    88   ar
    44   124   131   am
    45   124   123    1
    46   165   166    1
    47    83    84   ar
    48   141   142    2
    49   105   104   ar
    50   180   181    1
    51   180   183    1
    52   185   183    1
    53   116   117    1
    54   116   115    1
    55   104   103    1
    56   122   117   am
    57   122   123    1
    58    73    72    2
    59   126   123    1
    60   126   127    1
    61   117   118    2
    62   182   181    2
    63   153   156    1
    64   153   152    1
    65   156   157    1
    66    88    89    1
    67    88    86   ar
    68   144   145    1
    69   181   187   am
    70   183   184    1
    71   152   146   am
    72   166   167    1
    73    84    86   ar
    74   127   128    1
    75   184   186    1
    76   115   109   am
    77   103   102    1
    78    72    71    1
    79   146   145    1
    80   146   147    2
    81   145   148    1
    82   110   109    2
    83   187   188    1
    84   157   158    2
    85   157   159   am
    86    71    70    1
    87    71    74    1
    88   109   108    1
    89   102    99    1
    90   189   190    2
    91   189   188    1
    92    77    75   ar
    93   128   129    1
    94   101   100    2
    95   188   191    1
    96    74    75    1
    97   148   149    1
    98    75    76   ar
    99   100    99    1
   100   100   107   am
   101   129   130    1
   102   108   107    1
   103   108   111    1
   104    99    98    1
   105   191   192    1
   106    98    92   am
   107   149   150   ar
   108   149   151   ar
   109   113   111    1
   110    96    94    1
   111   111   112    1
   112    65    64    2
   113   192   194   ar
   114   192   193   ar
   115    92    91    1
   116    92    93    2
   117    91    94    1
   118    91    90    1
   119    94    95    1
   120    64    63    1
   121   112   114    1
   122    44    43   ar
   123    44    42   ar
   124    95    97    1
   125    43    41   ar
   126    52    50    1
   127    42    40   ar
   128    63    66    1
   129    63    62    1
   130    66    67    1
   131    67    68    1
   132    67    69    1
   133    50    49    1
   134    41    38   ar
   135    40    38   ar
   136    40    39   ar
   137    49    51    1
   138    49    46    1
   139    45    46    1
   140    38    36   ar
   141    46    47    1
   142    39    37   ar
   143    23    22    1
   144    48    47    2
   145     7     8    1
   146     7     6    1
   147    61    60    1
   148    14    13    1
   149    36    37   ar
   150    36    35    1
   151    60    59    1
   152    22    21    1
   153    58    57    1
   154    58    59    1
   155    21    20    1
   156    57    54    1
   157    35    32    1
   158    13    10    1
   159     6     5    1
   160     5     2    1
   161    20    19    1
   162    32    33    1
   163    32    31    1
   164    10     9    1
   165    10    11    1
   166    29    28    1
   167    29    30    1
   168    33    34    2
   169    28    25    1
   170    53    54    1
   171    54    55    1
   172    15    11   am
   173    15    16    1
   174    56    55    2
   175    11    12    2
   176     2     3    1
   177     2     1    1
   178     3     4    2
   179    19    16    1
   180    30    24    1
   181    16    17    1
   182    25    26    1
   183    25    24    1
   184    27    26    2
   185    17    18    2
