@<TRIPOS>MOLECULE
tmp/2ci0A01.pdb
 128 125 0 0 0
SMALL
GASTEIGER

@<TRIPOS>ATOM
      1  N        -17.6580   -0.3340   77.1640 N.3    74  TYR74      -0.1241
      2  CA       -16.8050    0.6050   76.4360 C.3    74  TYR74       0.1605
      3  C        -17.2370    2.0560   76.6560 C.2    74  TYR74       0.2264
      4  O        -17.8420    2.6750   75.7790 O.2    74  TYR74      -0.2867
      5  CB       -16.8470    0.2790   74.9400 C.3    74  TYR74       0.0534
      6  CG       -16.4930   -1.1550   74.6060 C.ar   74  TYR74      -0.0201
      7  CD1      -15.2330   -1.6700   74.9060 C.ar   74  TYR74      -0.0009
      8  CD2      -17.4060   -1.9890   73.9610 C.ar   74  TYR74      -0.0009
      9  CE1      -14.8880   -2.9720   74.5710 C.ar   74  TYR74       0.0417
     10  CE2      -17.0670   -3.2970   73.6150 C.ar   74  TYR74       0.0417
     11  CZ       -15.8050   -3.7800   73.9200 C.ar   74  TYR74       0.1957
     12  OH       -15.4450   -5.0540   73.5450 O.3    74  TYR74      -0.2866
     13  N        -15.6480    4.7410   76.4840 N.3    76  PHE76      -0.1227
     14  CA       -15.0290    5.7020   75.5790 C.3    76  PHE76       0.1736
     15  C        -15.8730    6.0000   74.3470 C.2    76  PHE76       0.2595
     16  O        -15.6010    6.9570   73.6250 O.2    76  PHE76      -0.2718
     17  CB       -13.6350    5.2100   75.1580 C.3    76  PHE76       0.0547
     18  CG       -13.6110    3.8010   74.6220 C.ar   76  PHE76      -0.0202
     19  CD1      -13.8530    3.5390   73.2750 C.ar   76  PHE76      -0.0042
     20  CD2      -13.3320    2.7340   75.4670 C.ar   76  PHE76      -0.0042
     21  CE1      -13.8130    2.2280   72.7810 C.ar   76  PHE76      -0.0003
     22  CE2      -13.2910    1.4270   74.9870 C.ar   76  PHE76      -0.0003
     23  CZ       -13.5320    1.1720   73.6400 C.ar   76  PHE76      -0.0000
     24  N        -16.9070    5.1990   74.1100 N.am   77  MET77      -0.1979
     25  CA       -17.7510    5.4190   72.9380 C.3    77  MET77       0.1605
     26  C        -18.9010    6.4020   73.1480 C.2    77  MET77       0.2287
     27  O        -19.4010    6.9850   72.1890 O.2    77  MET77      -0.2864
     28  CB       -18.3160    4.0900   72.4340 C.3    77  MET77       0.0413
     29  CG       -17.2650    3.1180   71.9220 C.3    77  MET77       0.0598
     30  SD       -16.1750    3.8440   70.6760 S.3    77  MET77      -0.1393
     31  CE       -17.3480    4.3140   69.3840 C.3    77  MET77       0.0692
     32  N        -20.3930    8.7240   70.0010 N.3    81  PHE81      -0.1241
     33  CA       -21.6960    8.5860   69.3710 C.3    81  PHE81       0.1605
     34  C        -22.5630    9.7860   69.7400 C.2    81  PHE81       0.2264
     35  O        -23.3280   10.2930   68.9170 O.2    81  PHE81      -0.2867
     36  CB       -22.3850    7.2970   69.8240 C.3    81  PHE81       0.0534
     37  CG       -21.6780    6.0380   69.3920 C.ar   81  PHE81      -0.0203
     38  CD1      -21.0160    5.9750   68.1680 C.ar   81  PHE81      -0.0042
     39  CD2      -21.7140    4.9000   70.1920 C.ar   81  PHE81      -0.0042
     40  CE1      -20.4020    4.7950   67.7470 C.ar   81  PHE81      -0.0003
     41  CE2      -21.1050    3.7160   69.7790 C.ar   81  PHE81      -0.0003
     42  CZ       -20.4480    3.6620   68.5540 C.ar   81  PHE81      -0.0000
     43  N        -18.4230    3.3540   62.5930 N.3   228  PHE228     -0.1227
     44  CA       -17.3430    3.0680   63.5400 C.3   228  PHE228      0.1736
     45  C        -16.7920    1.6500   63.6250 C.2   228  PHE228      0.2595
     46  O        -15.5780    1.4670   63.6670 O.2   228  PHE228     -0.2718
     47  CB       -17.7260    3.5560   64.9410 C.3   228  PHE228      0.0547
     48  CG       -16.5420    3.9410   65.7830 C.ar  228  PHE228     -0.0202
     49  CD1      -15.8530    2.9840   66.5190 C.ar  228  PHE228     -0.0042
     50  CD2      -16.0840    5.2550   65.8020 C.ar  228  PHE228     -0.0042
     51  CE1      -14.7210    3.3300   67.2610 C.ar  228  PHE228     -0.0003
     52  CE2      -14.9540    5.6140   66.5390 C.ar  228  PHE228     -0.0003
     53  CZ       -14.2700    4.6430   67.2710 C.ar  228  PHE228     -0.0000
     54  N        -17.6620    0.6500   63.6460 N.am  229  ALA229     -0.1980
     55  CA       -17.2030   -0.7310   63.7450 C.3   229  ALA229      0.1597
     56  C        -16.2860   -1.1270   62.5940 C.2   229  ALA229      0.2287
     57  O        -15.2110   -1.6990   62.8060 O.2   229  ALA229     -0.2864
     58  CB       -18.3960   -1.6680   63.7940 C.3   229  ALA229      0.0319
     59  N        -12.0230    1.5720   61.5920 N.3   232  HIS232     -0.1226
     60  CA       -10.6750    1.3170   62.0880 C.3   232  HIS232      0.1752
     61  C        -10.2250   -0.1160   61.8630 C.2   232  HIS232      0.2596
     62  O         -9.0420   -0.3730   61.6310 O.2   232  HIS232     -0.2718
     63  CB       -10.5480    1.7150   63.5720 C.3   232  HIS232      0.0759
     64  CG       -11.2110    0.7760   64.5290 C.ar  232  HIS232      0.0818
     65  ND1      -10.5340   -0.2540   65.1500 N.ar  232  HIS232     -0.2268
     66  CD2      -12.4770    0.7340   65.0080 C.ar  232  HIS232      0.1154
     67  CE1      -11.3540   -0.8850   65.9710 C.ar  232  HIS232      0.1986
     68  NE2      -12.5390   -0.3060   65.9040 N.ar  232  HIS232     -0.2212
     69  N        -11.1670   -1.0500   61.8900 N.am  233  THR233     -0.1953
     70  CA       -10.8250   -2.4490   61.6850 C.3   233  THR233      0.1897
     71  C        -10.4290   -2.7190   60.2280 C.2   233  THR233      0.2313
     72  O         -9.3880   -3.3260   59.9560 O.2   233  THR233     -0.2863
     73  CB       -11.9950   -3.3590   62.0940 C.3   233  THR233      0.1794
     74  OG1      -13.1820   -2.9570   61.3910 O.3   233  THR233     -0.2208
     75  CG2      -12.2390   -3.2560   63.5920 C.3   233  THR233      0.0378
     76  N         -8.9750   -5.7010   66.9500 N.3   294  LEU294     -0.1231
     77  CA        -9.4870   -5.5960   68.3100 C.3   294  LEU294      0.1693
     78  C         -8.6160   -6.5460   69.1300 C.2   294  LEU294      0.2592
     79  O         -8.6910   -7.7670   68.9740 O.2   294  LEU294     -0.2718
     80  CB       -10.9610   -6.0120   68.3770 C.3   294  LEU294      0.0284
     81  CG       -11.9150   -5.0670   67.6250 C.3   294  LEU294      0.0019
     82  CD1      -13.3420   -5.5930   67.7120 C.3   294  LEU294      0.0001
     83  CD2      -11.8390   -3.6650   68.2060 C.3   294  LEU294      0.0001
     84  N         -7.7720   -5.9750   69.9870 N.am  295  ILE295     -0.1966
     85  CA        -6.8680   -6.7800   70.7980 C.3   295  ILE295      0.1727
     86  C         -7.4860   -7.2590   72.1020 C.2   295  ILE295      0.2616
     87  O         -6.9910   -8.2070   72.7170 O.2   295  ILE295     -0.2715
     88  CB        -5.5440   -6.0230   71.0950 C.3   295  ILE295      0.0290
     89  CG1       -5.8210   -4.7460   71.8870 C.3   295  ILE295      0.0022
     90  CG2       -4.8350   -5.6920   69.7840 C.3   295  ILE295      0.0023
     91  CD1       -4.5480   -4.0410   72.3630 C.3   295  ILE295      0.0001
     92  N         -8.5710   -6.6120   72.5200 N.am  296  ILE296     -0.1963
     93  CA        -9.2670   -7.0020   73.7420 C.3   296  ILE296      0.1727
     94  C        -10.7620   -6.7790   73.5340 C.2   296  ILE296      0.2616
     95  O        -11.1640   -5.8260   72.8600 O.2   296  ILE296     -0.2715
     96  CB        -8.7610   -6.1880   74.9750 C.3   296  ILE296      0.0290
     97  CG1       -9.3660   -6.7620   76.2630 C.3   296  ILE296      0.0022
     98  CG2       -9.1130   -4.7050   74.8130 C.3   296  ILE296      0.0023
     99  CD1       -8.8130   -6.1320   77.5500 C.3   296  ILE296      0.0001
    100  N        -11.5660   -7.6830   74.0880 N.am  297  LEU297     -0.1977
    101  CA       -13.0280   -7.6260   73.9950 C.3   297  LEU297      0.1596
    102  C        -13.5400   -7.5990   75.4270 C.2   297  LEU297      0.2287
    103  O        -13.1130   -8.4030   76.2520 O.2   297  LEU297     -0.2864
    104  CB       -13.5540   -8.8620   73.2620 C.3   297  LEU297      0.0297
    105  CG       -12.9670   -9.0860   71.8630 C.3   297  LEU297      0.0022
    106  CD1      -13.4850  -10.4020   71.3120 C.3   297  LEU297      0.0001
    107  CD2      -13.3260   -7.9270   70.9430 C.3   297  LEU297      0.0001
    108  N        -18.5280  -11.9170   64.4550 N.3   367  CYS367     -0.1235
    109  CA       -18.6590  -10.7590   63.5800 C.3   367  CYS367      0.1677
    110  C        -19.6260  -10.9060   62.4120 C.2   367  CYS367      0.2270
    111  O        -19.4140  -11.7240   61.5220 O.2   367  CYS367     -0.2867
    112  CB       -17.2910  -10.3560   63.0320 C.3   367  CYS367      0.0956
    113  SG       -17.3470   -8.8630   62.0460 S.3   367  CYS367     -0.0801
    114  N         -7.6280    2.7670   72.8040 N.3   406  MET406     -0.1230
    115  CA        -8.3930    1.5340   72.6860 C.3   406  MET406      0.1702
    116  C         -8.5120    1.1730   71.2080 C.2   406  MET406      0.2592
    117  O         -8.5090   -0.0020   70.8410 O.2   406  MET406     -0.2718
    118  CB        -9.7790    1.6910   73.3180 C.3   406  MET406      0.0401
    119  CG        -9.7560    1.8720   74.8380 C.3   406  MET406      0.0596
    120  SD        -9.0030    0.4780   75.7210 S.3   406  MET406     -0.1393
    121  CE       -10.1920   -0.8100   75.4140 C.3   406  MET406      0.0692
    122  N         -8.6260    2.1900   70.3600 N.am  407  VAL407     -0.1980
    123  CA        -8.6840    1.9400   68.9280 C.3   407  VAL407      0.1595
    124  C         -7.2360    1.8500   68.4640 C.2   407  VAL407      0.2287
    125  O         -6.5030    2.8450   68.4700 O.2   407  VAL407     -0.2864
    126  CB        -9.3930    3.0780   68.1590 C.3   407  VAL407      0.0276
    127  CG1       -9.1750    2.9050   66.6610 C.3   407  VAL407      0.0022
    128  CG2      -10.8920    3.0550   68.4600 C.3   407  VAL407      0.0022
@<TRIPOS>BOND
     1    72    71    2
     2    71    70    1
     3    74    73    1
     4   111   110    2
     5    59    60    1
     6    62    61    2
     7    70    69    1
     8    70    73    1
     9    61    69   am
    10    61    60    1
    11   113   112    1
    12    60    63    1
    13    73    75    1
    14   110   109    1
    15    43    44    1
    16    56    57    2
    17    56    55    1
    18   112   109    1
    19    44    45    1
    20    44    47    1
    21    63    64    1
    22   109   108    1
    23    45    54   am
    24    45    46    2
    25    54    55    1
    26    55    58    1
    27    64    66   ar
    28    64    65   ar
    29    47    48    1
    30    66    68   ar
    31    65    67   ar
    32    48    50   ar
    33    48    49   ar
    34    50    52   ar
    35    68    67   ar
    36    49    51   ar
    37    52    53   ar
    38   127   126    1
    39    76    77    1
    40    51    53   ar
    41    81    82    1
    42    81    83    1
    43    81    80    1
    44    40    38   ar
    45    40    42   ar
    46   126   128    1
    47   126   123    1
    48    38    37   ar
    49    77    80    1
    50    77    78    1
    51   124   125    2
    52   124   123    1
    53    42    41   ar
    54    35    34    2
    55   123   122    1
    56    79    78    2
    57    78    84   am
    58    33    34    1
    59    33    36    1
    60    33    32    1
    61    31    30    1
    62    37    36    1
    63    37    39   ar
    64    41    39   ar
    65    90    88    1
    66    84    85    1
    67   122   116   am
    68    30    29    1
    69    85    88    1
    70    85    86    1
    71   117   116    2
    72   107   105    1
    73    88    89    1
    74   116   115    1
    75   106   105    1
    76   105   104    1
    77    89    91    1
    78    29    28    1
    79    86    92   am
    80    86    87    2
    81    27    26    2
    82    28    25    1
    83    92    93    1
    84   115   114    1
    85   115   118    1
    86    21    19   ar
    87    21    23   ar
    88    95    94    2
    89    25    26    1
    90    25    24    1
    91   104   101    1
    92    19    18   ar
    93   118   119    1
    94    94    93    1
    95    94   100   am
    96    12    11    1
    97    10    11   ar
    98    10     8   ar
    99    16    15    2
   100    23    22   ar
   101    93    96    1
   102    11     9   ar
   103     8     6   ar
   104   101   100    1
   105   101   102    1
   106    24    15   am
   107    15    14    1
   108     9     7   ar
   109     6     7   ar
   110     6     5    1
   111    18    17    1
   112    18    20   ar
   113    98    96    1
   114   119   120    1
   115     5     2    1
   116    96    97    1
   117    22    20   ar
   118    17    14    1
   119   121   120    1
   120   102   103    2
   121    14    13    1
   122     4     3    2
   123    97    99    1
   124     2     3    1
   125     2     1    1
