@<TRIPOS>MOLECULE
tmp/2ci5B00.pdb
 100 93 0 0 0
SMALL
GASTEIGER

@<TRIPOS>ATOM
      1  N          8.8240   17.6510   72.1330 N.3    22  LEU22      -0.1245
      2  CA         7.7590   17.8360   71.1460 C.3    22  LEU22       0.1561
      3  C          6.5270   16.9970   71.5130 C.2    22  LEU22       0.2260
      4  O          6.6590   15.8730   71.9930 O.2    22  LEU22      -0.2867
      5  CB         8.2720   17.3970   69.7700 C.3    22  LEU22       0.0270
      6  CG         9.4410   18.2210   69.2280 C.3    22  LEU22       0.0019
      7  CD1       10.1270   17.5160   68.0560 C.3    22  LEU22       0.0001
      8  CD2        8.9050   19.5810   68.8010 C.3    22  LEU22       0.0001
      9  N         14.0800   15.3820   73.5820 N.3    65  ASP65      -0.1239
     10  CA        13.4530   14.1090   73.2170 C.3    65  ASP65       0.1674
     11  C         14.4310   12.9470   73.1080 C.2    65  ASP65       0.2266
     12  O         14.0680   11.9010   72.5730 O.2    65  ASP65      -0.2867
     13  CB        12.7040   14.2550   71.8870 C.3    65  ASP65       0.1410
     14  CG        11.3820   14.9910   72.0370 C.2    65  ASP65       0.3668
     15  OD1       10.4890   14.4620   72.7330 O.co2  65  ASP65      -0.2456
     16  OD2       11.2400   16.0950   71.4600 O.co2  65  ASP65      -0.2456
     17  N         13.8050    8.9780   73.4890 N.3    68  PHE68      -0.1241
     18  CA        13.1390    8.1490   72.4720 C.3    68  PHE68       0.1605
     19  C         14.0720    7.6540   71.3720 C.2    68  PHE68       0.2264
     20  O         13.9410    8.0170   70.1980 O.2    68  PHE68      -0.2867
     21  CB        11.9490    8.9340   71.9020 C.3    68  PHE68       0.0534
     22  CG        10.9800    9.3870   72.9680 C.ar   68  PHE68      -0.0203
     23  CD1       10.7360   10.7380   73.1860 C.ar   68  PHE68      -0.0042
     24  CD2       10.3610    8.4480   73.7970 C.ar   68  PHE68      -0.0042
     25  CE1        9.8910   11.1560   74.2210 C.ar   68  PHE68      -0.0003
     26  CE2        9.5170    8.8540   74.8380 C.ar   68  PHE68      -0.0003
     27  CZ         9.2850   10.2140   75.0450 C.ar   68  PHE68      -0.0000
     28  N         13.4710    6.2710   67.4880 N.3    71  ASP71      -0.1239
     29  CA        13.3880    7.0620   66.2670 C.3    71  ASP71       0.1674
     30  C         14.6960    7.3250   65.5430 C.2    71  ASP71       0.2266
     31  O         14.6880    7.6910   64.3600 O.2    71  ASP71      -0.2867
     32  CB        12.6670    8.3830   66.5540 C.3    71  ASP71       0.1410
     33  CG        11.2230    8.1640   66.9570 C.2    71  ASP71       0.3668
     34  OD1       10.5680    7.2990   66.3270 O.co2  71  ASP71      -0.2456
     35  OD2       10.7410    8.8370   67.8920 O.co2  71  ASP71      -0.2456
     36  N         15.6950   16.9810   66.7560 N.3    90  ARG90      -0.1245
     37  CA        16.1360   15.6580   67.1650 C.3    90  ARG90       0.1563
     38  C         17.2990   15.0890   66.3430 C.2    90  ARG90       0.2260
     39  O         17.8350   14.0380   66.6690 O.2    90  ARG90      -0.2867
     40  CB        14.9470   14.6880   67.1350 C.3    90  ARG90       0.0307
     41  CG        13.7950   15.1080   68.0570 C.3    90  ARG90       0.0489
     42  CD        12.8420   13.9480   68.3120 C.3    90  ARG90       0.2205
     43  NE        13.5860   12.8140   68.8480 N.pl3  90  ARG90      -0.0865
     44  CZ        13.1170   11.5760   68.9610 C.cat  90  ARG90       0.5346
     45  NH1       11.8780   11.2850   68.5850 N.pl3  90  ARG90       0.1354
     46  NH2       13.9210   10.6150   69.4060 N.pl3  90  ARG90       0.1354
     47  N          6.8690   12.9790   59.7620 N.3   137  ARG137     -0.1245
     48  CA         8.2580   12.7400   60.1320 C.3   137  ARG137      0.1563
     49  C          9.0450   11.9390   59.1070 C.2   137  ARG137      0.2260
     50  O         10.2540   12.1330   58.9490 O.2   137  ARG137     -0.2867
     51  CB         8.3390   12.0000   61.4760 C.3   137  ARG137      0.0307
     52  CG         7.7980   12.7760   62.6740 C.3   137  ARG137      0.0489
     53  CD         8.6230   14.0280   62.9370 C.3   137  ARG137      0.2205
     54  NE         8.1460   14.7390   64.1220 N.pl3 137  ARG137     -0.0865
     55  CZ         8.3550   14.3380   65.3740 C.cat 137  ARG137      0.5346
     56  NH1        9.0440   13.2200   65.6220 N.pl3 137  ARG137      0.1354
     57  NH2        7.8730   15.0630   66.3810 N.pl3 137  ARG137      0.1354
     58  N          1.2600   10.4090   65.2950 N.3   164  LEU164     -0.1231
     59  CA         2.6330   10.8410   65.0890 C.3   164  LEU164      0.1693
     60  C          3.3810    9.8400   64.2160 C.2   164  LEU164      0.2592
     61  O          3.9970   10.2220   63.2250 O.2   164  LEU164     -0.2718
     62  CB         3.3750   10.9940   66.4220 C.3   164  LEU164      0.0284
     63  CG         4.8870   11.2580   66.3370 C.3   164  LEU164      0.0019
     64  CD1        5.1550   12.5930   65.6330 C.3   164  LEU164      0.0001
     65  CD2        5.4760   11.2690   67.7490 C.3   164  LEU164      0.0001
     66  N          3.3010    8.5590   64.5820 N.am  165  HIS165     -0.1976
     67  CA         4.0160    7.4980   63.8630 C.3   165  HIS165      0.1656
     68  C          3.1200    6.3140   63.5350 C.2   165  HIS165      0.2291
     69  O          2.0350    6.1710   64.0970 O.2   165  HIS165     -0.2864
     70  CB         5.1490    6.9360   64.7230 C.3   165  HIS165      0.0771
     71  CG         6.2520    7.8980   65.0170 C.ar  165  HIS165      0.0820
     72  ND1        6.7670    8.0600   66.2860 N.ar  165  HIS165     -0.2267
     73  CD2        6.9930    8.6890   64.2050 C.ar  165  HIS165      0.1154
     74  CE1        7.7810    8.9080   66.2410 C.ar  165  HIS165      0.1986
     75  NE2        7.9390    9.3040   64.9890 N.ar  165  HIS165     -0.2212
     76  N          4.1450   13.0010   75.8790 N.3   260  VAL260     -0.1231
     77  CA         4.9570   13.5680   74.8080 C.3   260  VAL260      0.1692
     78  C          5.0540   12.5580   73.6570 C.2   260  VAL260      0.2592
     79  O          6.0590   12.4760   72.9500 O.2   260  VAL260     -0.2718
     80  CB         6.3610   14.0230   75.2990 C.3   260  VAL260      0.0266
     81  CG1        6.1960   15.1940   76.2750 C.3   260  VAL260      0.0020
     82  CG2        7.1090   12.8870   75.9820 C.3   260  VAL260      0.0020
     83  N          3.9680   11.8030   73.4890 N.am  261  ASP261     -0.1960
     84  CA         3.8190   10.8260   72.4100 C.3   261  ASP261      0.1840
     85  C          4.7920    9.6660   72.4090 C.2   261  ASP261      0.2622
     86  O          4.9570    8.9870   71.3880 O.2   261  ASP261     -0.2715
     87  CB         3.8960   11.5360   71.0590 C.3   261  ASP261      0.1450
     88  CG         2.8120   12.5840   70.8900 C.2   261  ASP261      0.3671
     89  OD1        3.1120   13.6500   70.2940 O.co2 261  ASP261     -0.2456
     90  OD2        1.6640   12.3350   71.3390 O.co2 261  ASP261     -0.2456
     91  N          5.4310    9.4270   73.5490 N.am  262  GLY262     -0.1954
     92  CA         6.3680    8.3230   73.6380 C.3   262  GLY262      0.1869
     93  C          5.6330    7.1060   74.1660 C.2   262  GLY262      0.2309
     94  O          5.0970    7.1420   75.2730 O.2   262  GLY262     -0.2863
     95  N          9.1340    3.1020   71.7020 N.3   266  CYS266     -0.1235
     96  CA         9.8860    4.3320   71.5140 C.3   266  CYS266      0.1677
     97  C         11.1240    4.5100   72.3830 C.2   266  CYS266      0.2270
     98  O         12.0870    5.1700   71.9670 O.2   266  CYS266     -0.2867
     99  CB         8.9450    5.5090   71.7480 C.3   266  CYS266      0.0956
    100  SG         7.3840    5.3390   70.8420 S.3   266  CYS266     -0.0801
@<TRIPOS>BOND
     1    50    49    2
     2    49    48    1
     3    47    48    1
     4    48    51    1
     5    51    52    1
     6    52    53    1
     7    53    54    1
     8    61    60    2
     9    68    67    1
    10    68    69    2
    11    67    66    1
    12    67    70    1
    13    54    55    2
    14    73    75   ar
    15    73    71   ar
    16    60    66   am
    17    60    59    1
    18    31    30    2
    19    70    71    1
    20    75    74   ar
    21    71    72   ar
    22    59    58    1
    23    59    62    1
    24    55    56    1
    25    55    57    1
    26    30    29    1
    27    64    63    1
    28    74    72   ar
    29    29    32    1
    30    29    28    1
    31    34    33   ar
    32    63    62    1
    33    63    65    1
    34    38    39    2
    35    38    37    1
    36    32    33    1
    37    36    37    1
    38    33    35   ar
    39    40    37    1
    40    40    41    1
    41     7     6    1
    42    41    42    1
    43    42    43    1
    44    45    44    1
    45     8     6    1
    46    43    44    2
    47    44    46    1
    48     6     5    1
    49     5     2    1
    50    20    19    2
    51    89    88   ar
    52   100    99    1
    53    88    87    1
    54    88    90   ar
    55    87    84    1
    56     2     3    1
    57     2     1    1
    58    19    18    1
    59    86    85    2
    60    16    14   ar
    61     3     4    2
    62    96    95    1
    63    96    99    1
    64    96    97    1
    65    13    14    1
    66    13    10    1
    67    21    18    1
    68    21    22    1
    69    98    97    2
    70    14    15   ar
    71    85    84    1
    72    85    91   am
    73    84    83    1
    74    18    17    1
    75    12    11    2
    76    79    78    2
    77    22    23   ar
    78    22    24   ar
    79    11    10    1
    80    23    25   ar
    81    10     9    1
    82    83    78   am
    83    91    92    1
    84    92    93    1
    85    78    77    1
    86    24    26   ar
    87    93    94    2
    88    25    27   ar
    89    77    80    1
    90    77    76    1
    91    26    27   ar
    92    80    82    1
    93    80    81    1
