@<TRIPOS>MOLECULE
tmp/2ci9A00.pdb
 116 113 0 0 0
SMALL
GASTEIGER

@<TRIPOS>ATOM
      1  N         27.1420    4.4500   15.3940 N.3    14  ARG14      -0.1245
      2  CA        27.9820    4.0880   14.2570 C.3    14  ARG14       0.1563
      3  C         27.3170    3.0460   13.3490 C.2    14  ARG14       0.2260
      4  O         27.2860    3.2300   12.1420 O.2    14  ARG14      -0.2867
      5  CB        29.3400    3.6180   14.7480 C.3    14  ARG14       0.0307
      6  CG        30.2510    3.1350   13.6420 C.3    14  ARG14       0.0489
      7  CD        31.5310    2.5500   14.1860 C.3    14  ARG14       0.2205
      8  NE        32.5010    3.5910   14.4900 N.pl3  14  ARG14      -0.0865
      9  CZ        33.7790    3.6490   14.0810 C.cat  14  ARG14       0.5346
     10  NH1       34.3300    2.6810   13.3480 N.pl3  14  ARG14       0.1354
     11  NH2       34.5250    4.7000   14.4250 N.pl3  14  ARG14       0.1354
     12  N         27.0840   12.9850   12.8400 N.3    33  ARG33      -0.1245
     13  CA        26.3730   12.4470   14.0220 C.3    33  ARG33       0.1563
     14  C         27.1670   12.7100   15.2770 C.2    33  ARG33       0.2260
     15  O         28.3580   12.9960   15.2210 O.2    33  ARG33      -0.2867
     16  CB        26.1660   10.9410   13.9040 C.3    33  ARG33       0.0307
     17  CG        27.4590   10.1440   13.6660 C.3    33  ARG33       0.0489
     18  CD        27.2130    8.6290   13.3810 C.3    33  ARG33       0.2205
     19  NE        28.4600    7.9230   13.1690 N.pl3  33  ARG33      -0.0865
     20  CZ        29.2910    7.5410   14.1290 C.cat  33  ARG33       0.5346
     21  NH1       28.9750    7.7020   15.4150 N.pl3  33  ARG33       0.1354
     22  NH2       30.4440    6.9710   13.8190 N.pl3  33  ARG33       0.1354
     23  N         29.3690   11.7700   18.3220 N.3    35  SER35      -0.1202
     24  CA        30.3030   10.6740   18.5490 C.3    35  SER35       0.2020
     25  C         29.8050    9.7870   19.6740 C.2    35  SER35       0.2619
     26  O         29.4480   10.2960   20.7390 O.2    35  SER35      -0.2717
     27  CB        31.6920   11.2030   18.9000 C.3    35  SER35       0.2103
     28  OG        32.5830   10.1550   19.3040 O.3    35  SER35      -0.2182
     29  N         29.8480    8.4700   19.4780 N.am   36  GLU36      -0.1965
     30  CA        29.4970    7.5250   20.5400 C.3    36  GLU36       0.1733
     31  C         30.5560    7.4290   21.6270 C.2    36  GLU36       0.2617
     32  O         30.2250    7.3470   22.8200 O.2    36  GLU36      -0.2715
     33  CB        29.3170    6.1110   20.0010 C.3    36  GLU36       0.0429
     34  CG        28.1310    5.9170   19.1770 C.3    36  GLU36       0.1163
     35  CD        27.7720    4.4540   19.0460 C.2    36  GLU36       0.3649
     36  OE1       27.1920    3.8710   19.9870 O.co2  36  GLU36      -0.2457
     37  OE2       28.0620    3.8920   17.9830 O.co2  36  GLU36      -0.2457
     38  N         31.8250    7.4020   21.2240 N.am   37  SER37      -0.1950
     39  CA        32.9270    7.1990   22.1740 C.3    37  SER37       0.1924
     40  C         33.4890    8.4760   22.8010 C.2    37  SER37       0.2314
     41  O         34.2040    8.3970   23.7980 O.2    37  SER37      -0.2863
     42  CB        33.9990    6.3140   21.5620 C.3    37  SER37       0.2116
     43  OG        34.4640    6.8040   20.3360 O.3    37  SER37      -0.2180
     44  N         31.1520   12.8370   14.7240 N.3    43  SER43      -0.1217
     45  CA        31.7570   11.9190   13.7730 C.3    43  SER43       0.1889
     46  C         31.1980   12.1570   12.3880 C.2    43  SER43       0.2288
     47  O         29.9620   12.2970   12.2240 O.2    43  SER43      -0.2866
     48  CB        31.4630   10.4950   14.1930 C.3    43  SER43       0.2089
     49  OG        32.0120   10.2430   15.4840 O.3    43  SER43      -0.2183
     50  N         34.7040   -0.5060    2.6060 N.3    51  LYS51      -0.1231
     51  CA        34.3980   -0.2050    4.0060 C.3    51  LYS51       0.1693
     52  C         34.1690    1.2970    4.2040 C.2    51  LYS51       0.2592
     53  O         34.9730    2.1070    3.7650 O.2    51  LYS51      -0.2718
     54  CB        35.5840   -0.6760    4.8500 C.3    51  LYS51       0.0285
     55  CG        35.4030   -0.5870    6.3500 C.3    51  LYS51       0.0035
     56  CD        36.5320   -1.3420    7.0410 C.3    51  LYS51       0.0206
     57  CE        36.4910   -1.1830    8.5520 C.3    51  LYS51       0.1093
     58  NZ        35.1980   -1.6270    9.1450 N.3    51  LYS51      -0.1314
     59  N         33.0910    1.6560    4.8920 N.am   52  ASN52      -0.1960
     60  CA        32.7730    3.0620    5.1470 C.3    52  ASN52       0.1819
     61  C         33.7800    3.6430    6.1080 C.2    52  ASN52       0.2621
     62  O         34.4580    2.9030    6.8340 O.2    52  ASN52      -0.2715
     63  CB        31.3470    3.2170    5.6760 C.3    52  ASN52       0.1195
     64  CG        30.3030    2.7770    4.6520 C.2    52  ASN52       0.2630
     65  OD1       30.4750    3.0140    3.4550 O.2    52  ASN52      -0.2716
     66  ND2       29.2540    2.1000    5.1070 N.am   52  ASN52      -0.0877
     67  N         33.9050    4.9590    6.0870 N.am   53  LYS53      -0.1963
     68  CA        34.9420    5.6400    6.8850 C.3    53  LYS53       0.1728
     69  C         34.2740    6.4870    7.9540 C.2    53  LYS53       0.2616
     70  O         33.1260    6.9420    7.7990 O.2    53  LYS53      -0.2715
     71  CB        35.8310    6.5360    6.0160 C.3    53  LYS53       0.0311
     72  CG        36.5720    5.8790    4.8700 C.3    53  LYS53       0.0038
     73  CD        37.7370    5.0390    5.3170 C.3    53  LYS53       0.0206
     74  CE        38.6230    4.6300    4.1300 C.3    53  LYS53       0.1093
     75  NZ        39.6910    3.6890    4.5720 N.3    53  LYS53      -0.1314
     76  N         34.9660    6.6770    9.0740 N.am   54  HIS54      -0.1959
     77  CA        34.4720    7.4970   10.1560 C.3    54  HIS54       0.1787
     78  C         35.5840    8.3920   10.6420 C.2    54  HIS54       0.2620
     79  O         36.6940    7.9110   10.9460 O.2    54  HIS54      -0.2715
     80  CB        33.9560    6.6370   11.3230 C.3    54  HIS54       0.0785
     81  CG        32.8500    5.6730   10.9510 C.ar   54  HIS54       0.0821
     82  ND1       31.5110    6.0120   10.8920 N.ar   54  HIS54      -0.2267
     83  CD2       32.9130    4.3570   10.6250 C.ar   54  HIS54       0.1154
     84  CE1       30.8040    4.9540   10.5240 C.ar   54  HIS54       0.1986
     85  NE2       31.6350    3.9370   10.3420 N.ar   54  HIS54      -0.2212
     86  N         35.3350    9.6900   10.6880 N.am   55  PHE55      -0.1960
     87  CA        36.3780   10.6430   11.0810 C.3    55  PHE55       0.1771
     88  C         35.9240   11.4460   12.2800 C.2    55  PHE55       0.2619
     89  O         34.7650   11.8800   12.3580 O.2    55  PHE55      -0.2715
     90  CB        36.7090   11.6130    9.9390 C.3    55  PHE55       0.0574
     91  CG        37.0620   10.9450    8.6350 C.ar   55  PHE55      -0.0200
     92  CD1       38.3400   10.4880    8.3710 C.ar   55  PHE55      -0.0042
     93  CD2       36.0730   10.7770    7.6700 C.ar   55  PHE55      -0.0042
     94  CE1       38.6470    9.8740    7.1880 C.ar   55  PHE55      -0.0003
     95  CE2       36.3830   10.1560    6.4680 C.ar   55  PHE55      -0.0003
     96  CZ        37.6690    9.6980    6.2410 C.ar   55  PHE55      -0.0000
     97  N         36.8470   11.6730   13.2060 N.am   56  LYS56      -0.1977
     98  CA        36.5920   12.4150   14.4210 C.3    56  LYS56       0.1596
     99  C         36.6620   13.8980   14.2070 C.2    56  LYS56       0.2287
    100  O         37.6700   14.3730   13.6510 O.2    56  LYS56      -0.2864
    101  CB        37.6430   12.0100   15.4800 C.3    56  LYS56       0.0298
    102  CG        37.5000   12.7370   16.8370 C.3    56  LYS56       0.0038
    103  CD        38.2560   12.0650   17.9890 C.3    56  LYS56       0.0206
    104  CE        37.5420   10.7800   18.4960 C.3    56  LYS56       0.1093
    105  NZ        36.1400   10.9910   18.9750 N.3    56  LYS56      -0.1314
    106  N         40.4580   11.8520    2.8920 N.3    87  PHE87      -0.1241
    107  CA        41.2150   10.6200    3.0380 C.3    87  PHE87       0.1605
    108  C         42.0730   10.3680    1.7930 C.2    87  PHE87       0.2264
    109  O         41.6100   10.5670    0.6730 O.2    87  PHE87      -0.2867
    110  CB        40.2640    9.4350    3.3050 C.3    87  PHE87       0.0534
    111  CG        40.9870    8.1260    3.5020 C.ar   87  PHE87      -0.0203
    112  CD1       41.4880    7.7860    4.7530 C.ar   87  PHE87      -0.0042
    113  CD2       41.2020    7.2620    2.4380 C.ar   87  PHE87      -0.0042
    114  CE1       42.1920    6.5970    4.9580 C.ar   87  PHE87      -0.0003
    115  CE2       41.8890    6.0670    2.6310 C.ar   87  PHE87      -0.0003
    116  CZ        42.3900    5.7380    3.9030 C.ar   87  PHE87      -0.0000
@<TRIPOS>BOND
     1   109   108    2
     2   108   107    1
     3   113   115   ar
     4   113   111   ar
     5    50    51    1
     6   115   116   ar
     7   106   107    1
     8   107   110    1
     9   110   111    1
    10    65    64    2
    11   111   112   ar
    12    53    52    2
    13   116   114   ar
    14    51    52    1
    15    51    54    1
    16    74    75    1
    17    74    73    1
    18    52    59   am
    19    64    66   am
    20    64    63    1
    21   112   114   ar
    22    54    55    1
    23    72    73    1
    24    72    71    1
    25    59    60    1
    26    60    63    1
    27    60    61    1
    28    71    68    1
    29    67    61   am
    30    67    68    1
    31    61    62    2
    32    96    95   ar
    33    96    94   ar
    34    55    56    1
    35    95    93   ar
    36    68    69    1
    37    56    57    1
    38    94    92   ar
    39    93    91   ar
    40    70    69    2
    41    69    76   am
    42    92    91   ar
    43    57    58    1
    44    91    90    1
    45    76    77    1
    46    90    87    1
    47    77    78    1
    48    77    80    1
    49    85    84   ar
    50    85    83   ar
    51    84    82   ar
    52    83    81   ar
    53    78    86   am
    54    78    79    2
    55    86    87    1
    56    82    81   ar
    57    81    80    1
    58    87    88    1
    59     4     3    2
    60    47    46    2
    61    88    89    2
    62    88    97   am
    63    46    45    1
    64    12    13    1
    65    19    18    1
    66    19    20    2
    67    97    98    1
    68    10     9    1
    69     3     2    1
    70    18    17    1
    71     6     7    1
    72     6     5    1
    73   100    99    2
    74    17    16    1
    75    45    48    1
    76    45    44    1
    77    22    20    1
    78    16    13    1
    79    13    14    1
    80     9    11    1
    81     9     8    2
    82    20    21    1
    83     7     8    1
    84    48    49    1
    85    99    98    1
    86     2     5    1
    87     2     1    1
    88    98   101    1
    89    15    14    2
    90   101   102    1
    91   102   103    1
    92    37    35   ar
    93   103   104    1
    94    23    24    1
    95   104   105    1
    96    24    27    1
    97    24    25    1
    98    27    28    1
    99    35    34    1
   100    35    36   ar
   101    34    33    1
   102    29    25   am
   103    29    30    1
   104    25    26    2
   105    33    30    1
   106    43    42    1
   107    30    31    1
   108    38    31   am
   109    38    39    1
   110    42    39    1
   111    31    32    2
   112    39    40    1
   113    40    41    2
