@<TRIPOS>MOLECULE
tmp/2ciaA00.pdb
 132 128 0 0 0
SMALL
GASTEIGER

@<TRIPOS>ATOM
      1  N         12.5670   60.0090   26.7420 N.3    10  ARG10      -0.1245
      2  CA        11.9050   58.8050   27.2410 C.3    10  ARG10       0.1563
      3  C         10.7040   59.1590   28.0790 C.2    10  ARG10       0.2260
      4  O          9.6300   58.5780   27.8710 O.2    10  ARG10      -0.2867
      5  CB        12.8560   57.9360   28.0280 C.3    10  ARG10       0.0307
      6  CG        12.1950   56.7180   28.5980 C.3    10  ARG10       0.0489
      7  CD        13.0490   55.7870   29.4120 C.3    10  ARG10       0.2205
      8  NE        13.9150   55.0160   28.5550 N.pl3  10  ARG10      -0.0865
      9  CZ        14.3530   53.7850   28.8070 C.cat  10  ARG10       0.5346
     10  NH1       14.0140   53.1610   29.9330 N.pl3  10  ARG10       0.1354
     11  NH2       15.1040   53.1810   27.9480 N.pl3  10  ARG10       0.1354
     12  N         11.8860   57.7000   18.3150 N.3    29  ARG29      -0.1245
     13  CA        12.4890   58.9340   18.7840 C.3    29  ARG29       0.1563
     14  C         13.9950   58.8100   18.8260 C.2    29  ARG29       0.2260
     15  O         14.5340   57.7320   18.7660 O.2    29  ARG29      -0.2867
     16  CB        11.9900   59.2750   20.2070 C.3    29  ARG29       0.0307
     17  CG        12.2170   58.1860   21.2340 C.3    29  ARG29       0.0489
     18  CD        11.5890   58.4760   22.5910 C.3    29  ARG29       0.2205
     19  NE        11.8160   57.3500   23.4840 N.pl3  29  ARG29      -0.0865
     20  CZ        12.9480   57.1060   24.1000 C.cat  29  ARG29       0.5346
     21  NH1       13.9620   57.9680   24.0380 N.pl3  29  ARG29       0.1354
     22  NH2       13.0810   56.0110   24.8250 N.pl3  29  ARG29       0.1354
     23  N         17.5410   58.6120   20.4830 N.3    31  SER31      -0.1202
     24  CA        17.9670   58.0330   21.7450 C.3    31  SER31       0.2020
     25  C         18.4720   59.1180   22.6690 C.2    31  SER31       0.2619
     26  O         19.1380   60.0570   22.2020 O.2    31  SER31      -0.2717
     27  CB        19.0880   57.0590   21.4640 C.3    31  SER31       0.2103
     28  OG        19.5350   56.4420   22.6810 O.3    31  SER31      -0.2182
     29  N         18.1280   59.0230   23.9570 N.am   32  GLU32      -0.1965
     30  CA        18.7550   59.9140   24.9390 C.3    32  GLU32       0.1733
     31  C         20.0880   59.3420   25.3790 C.2    32  GLU32       0.2617
     32  O         20.8920   60.0680   25.9360 O.2    32  GLU32      -0.2715
     33  CB        17.8720   60.0550   26.1820 C.3    32  GLU32       0.0429
     34  CG        16.5950   60.7270   25.9600 C.3    32  GLU32       0.1163
     35  CD        15.9940   61.1790   27.2640 C.2    32  GLU32       0.3649
     36  OE1       16.3900   62.2770   27.7810 O.co2  32  GLU32      -0.2457
     37  OE2       15.1180   60.4980   27.7890 O.co2  32  GLU32      -0.2457
     38  N         20.3260   58.0530   25.1230 N.am   33  SER33      -0.1950
     39  CA        21.5410   57.2960   25.5850 C.3    33  SER33       0.1924
     40  C         22.7070   57.3060   24.6540 C.2    33  SER33       0.2314
     41  O         23.8380   57.1430   25.1210 O.2    33  SER33      -0.2863
     42  CB        21.1470   55.8490   25.8480 C.3    33  SER33       0.2116
     43  OG        20.2260   55.7590   26.8940 O.3    33  SER33      -0.2180
     44  N         15.2910   55.1180   19.4960 N.3    39  SER39      -0.1217
     45  CA        14.5370   54.2400   20.3690 C.3    39  SER39       0.1889
     46  C         13.1390   54.0330   19.8190 C.2    39  SER39       0.2288
     47  O         12.5050   54.9630   19.3410 O.2    39  SER39      -0.2866
     48  CB        14.4730   54.8410   21.7440 C.3    39  SER39       0.2089
     49  OG        15.8160   55.0740   22.2230 O.3    39  SER39      -0.2183
     50  N          3.4070   48.3430   31.5290 N.3    47  LYS47      -0.1231
     51  CA         4.6840   49.0590   31.4470 C.3    47  LYS47       0.1693
     52  C          5.0580   49.1120   29.9880 C.2    47  LYS47       0.2592
     53  O          5.0740   48.1140   29.2740 O.2    47  LYS47      -0.2718
     54  CB         5.7810   48.3400   32.2410 C.3    47  LYS47       0.0285
     55  CG         7.0960   49.0520   32.2530 C.3    47  LYS47       0.0035
     56  CD         8.0860   48.4340   33.1820 C.3    47  LYS47       0.0206
     57  CE         9.4300   49.1390   33.0860 C.3    47  LYS47       0.1093
     58  NZ         9.3700   50.6290   33.4180 N.3    47  LYS47      -0.1314
     59  N          5.3610   50.3050   29.5140 N.am   48  ASN48      -0.1960
     60  CA         5.7390   50.5340   28.1290 C.3    48  ASN48       0.1819
     61  C          7.1100   49.9930   27.8580 C.2    48  ASN48       0.2621
     62  O          7.9510   49.8270   28.8030 O.2    48  ASN48      -0.2715
     63  CB         5.6210   51.9930   27.7860 C.3    48  ASN48       0.1195
     64  CG         4.2110   52.4870   27.9460 C.2    48  ASN48       0.2630
     65  OD1        3.2840   51.7670   27.6020 O.2    48  ASN48      -0.2716
     66  ND2        4.0460   53.6880   28.4860 N.am   48  ASN48      -0.0877
     67  N          7.3860   49.7240   26.5960 N.am   49  LYS49      -0.1963
     68  CA         8.6780   49.1300   26.2630 C.3    49  LYS49       0.1728
     69  C          9.4730   50.0580   25.3680 C.2    49  LYS49       0.2616
     70  O          8.9020   50.7930   24.5630 O.2    49  LYS49      -0.2715
     71  CB         8.4650   47.7800   25.6120 C.3    49  LYS49       0.0311
     72  CG         7.7540   46.8120   26.5270 C.3    49  LYS49       0.0038
     73  CD         7.5040   45.4690   25.8860 C.3    49  LYS49       0.0206
     74  CE         6.6240   44.5750   26.8120 C.3    49  LYS49       0.1093
     75  NZ         7.2530   44.2620   28.1480 N.3    49  LYS49      -0.1314
     76  N         10.7930   50.0070   25.5120 N.am   50  HIS50      -0.1959
     77  CA        11.7200   50.8250   24.7580 C.3    50  HIS50       0.1787
     78  C         12.7990   49.9090   24.1890 C.2    50  HIS50       0.2620
     79  O         13.4480   49.1970   24.9580 O.2    50  HIS50      -0.2715
     80  CB        12.3720   51.8850   25.6270 C.3    50  HIS50       0.0785
     81  CG        11.3960   52.7670   26.2850 C.ar   50  HIS50       0.0821
     82  ND1       10.8680   53.8720   25.6560 N.ar   50  HIS50      -0.2267
     83  CD2       10.8340   52.7030   27.5210 C.ar   50  HIS50       0.1154
     84  CE1        9.9880   54.4370   26.4840 C.ar   50  HIS50       0.1986
     85  NE2        9.9740   53.7580   27.6260 N.ar   50  HIS50      -0.2212
     86  N         12.9980   49.9810   22.8920 N.am   51  PHE51      -0.1960
     87  CA        13.9810   49.1650   22.1890 C.3    51  PHE51       0.1771
     88  C         14.9960   50.0310   21.4810 C.2    51  PHE51       0.2619
     89  O         14.6480   51.0060   20.8360 O.2    51  PHE51      -0.2715
     90  CB        13.2900   48.2630   21.1690 C.3    51  PHE51       0.0574
     91  CG        12.1590   47.4660   21.7470 C.ar   51  PHE51      -0.0200
     92  CD1       12.4070   46.3440   22.4870 C.ar   51  PHE51      -0.0042
     93  CD2       10.8590   47.8130   21.5330 C.ar   51  PHE51      -0.0042
     94  CE1       11.3570   45.5870   23.0380 C.ar   51  PHE51      -0.0003
     95  CE2        9.8130   47.0740   22.0790 C.ar   51  PHE51      -0.0003
     96  CZ        10.0840   45.9610   22.8110 C.ar   51  PHE51      -0.0000
     97  N         16.2530   49.6350   21.5760 N.am   52  LYS52      -0.1977
     98  CA        17.3330   50.3400   20.9150 C.3    52  LYS52       0.1596
     99  C         17.3970   50.0530   19.4340 C.2    52  LYS52       0.2287
    100  O         17.1920   48.9220   18.9890 O.2    52  LYS52      -0.2864
    101  CB        18.6830   49.9380   21.5110 C.3    52  LYS52       0.0298
    102  CG        18.8920   50.3420   22.9620 C.3    52  LYS52       0.0038
    103  CD        20.2770   49.9040   23.4890 C.3    52  LYS52       0.0206
    104  CE        20.5360   48.3740   23.3820 C.3    52  LYS52       0.1093
    105  NZ        19.5270   47.4570   24.0290 N.3    52  LYS52      -0.1314
    106  N         18.7740   46.3520   15.1290 N.3    62  ILE62      -0.1245
    107  CA        17.9300   46.1200   16.2800 C.3    62  ILE62       0.1561
    108  C         18.0360   44.6740   16.6600 C.2    62  ILE62       0.2260
    109  O         17.8170   43.8100   15.8030 O.2    62  ILE62      -0.2867
    110  CB        16.4930   46.6250   16.0490 C.3    62  ILE62       0.0252
    111  CG1       15.6250   46.3810   17.2780 C.3    62  ILE62       0.0019
    112  CG2       15.9080   46.0480   14.7630 C.3    62  ILE62       0.0019
    113  CD1       14.2460   47.0600   17.2120 C.3    62  ILE62       0.0001
    114  N          7.8620   42.2510   18.0460 N.3    82  ILE82      -0.1231
    115  CA         9.0170   42.9700   18.5340 C.3    82  ILE82       0.1692
    116  C          9.3480   42.5210   19.9500 C.2    82  ILE82       0.2592
    117  O         10.4450   42.7380   20.4470 O.2    82  ILE82      -0.2718
    118  CB         8.8250   44.5130   18.4140 C.3    82  ILE82       0.0266
    119  CG1       10.1490   45.2600   18.5580 C.3    82  ILE82       0.0019
    120  CG2        7.7540   45.0690   19.3880 C.3    82  ILE82       0.0020
    121  CD1       10.1190   46.6950   18.0540 C.3    82  ILE82       0.0001
    122  N          8.3990   41.8770   20.6090 N.am   83  PHE83      -0.1976
    123  CA         8.5880   41.3940   21.9660 C.3    83  PHE83       0.1639
    124  C          7.6800   40.1940   22.1780 C.2    83  PHE83       0.2290
    125  O          6.5640   40.1970   21.7310 O.2    83  PHE83      -0.2864
    126  CB         8.1880   42.4740   22.9690 C.3    83  PHE83       0.0560
    127  CG         8.4550   42.0970   24.3770 C.ar   83  PHE83      -0.0200
    128  CD1        9.7270   42.3050   24.9310 C.ar   83  PHE83      -0.0042
    129  CD2        7.4690   41.5210   25.1460 C.ar   83  PHE83      -0.0042
    130  CE1        9.9900   41.9350   26.2520 C.ar   83  PHE83      -0.0003
    131  CE2        7.7350   41.1410   26.4810 C.ar   83  PHE83      -0.0003
    132  CZ         8.9950   41.3590   27.0210 C.ar   83  PHE83      -0.0000
@<TRIPOS>BOND
     1   112   110    1
     2   106   107    1
     3   109   108    2
     4   110   107    1
     5   110   111    1
     6   107   108    1
     7   113   111    1
     8   114   115    1
     9   121   119    1
    10    12    13    1
    11   118   115    1
    12   118   119    1
    13   118   120    1
    14   115   116    1
    15    15    14    2
    16    13    14    1
    17    13    16    1
    18   100    99    2
    19    47    46    2
    20    99    98    1
    21    44    45    1
    22    46    45    1
    23   116   117    2
    24   116   122   am
    25    16    17    1
    26    45    48    1
    27    23    24    1
    28   122   123    1
    29    89    88    2
    30    98   101    1
    31    98    97    1
    32    90    91    1
    33    90    87    1
    34    17    18    1
    35    27    24    1
    36    27    28    1
    37    88    97   am
    38    88    87    1
    39   101   102    1
    40    93    91   ar
    41    93    95   ar
    42   125   124    2
    43    48    49    1
    44    24    25    1
    45    91    92   ar
    46   123   124    1
    47   123   126    1
    48    95    96   ar
    49    87    86    1
    50    26    25    2
    51    92    94   ar
    52    18    19    1
    53    25    29   am
    54    96    94   ar
    55    86    78   am
    56   102   103    1
    57   126   127    1
    58   104   103    1
    59   104   105    1
    60    19    20    2
    61    29    30    1
    62    21    20    1
    63    20    22    1
    64    78    77    1
    65    78    79    2
    66   127   128   ar
    67   127   129   ar
    68    70    69    2
    69    40    41    2
    70    40    39    1
    71    77    76    1
    72    77    80    1
    73   128   130   ar
    74    30    31    1
    75    30    33    1
    76    38    31   am
    77    38    39    1
    78   129   131   ar
    79    69    76   am
    80    69    68    1
    81    31    32    2
    82    39    42    1
    83    71    68    1
    84    71    72    1
    85    80    81    1
    86    82    81   ar
    87    82    84   ar
    88    42    43    1
    89    73    72    1
    90    73    74    1
    91    34    33    1
    92    34    35    1
    93   130   132   ar
    94    68    67    1
    95    81    83   ar
    96   131   132   ar
    97    84    85   ar
    98    67    61   am
    99     1     2    1
   100    74    75    1
   101     2     5    1
   102     2     3    1
   103    35    36   ar
   104    35    37   ar
   105    83    85   ar
   106    65    64    2
   107    63    64    1
   108    63    60    1
   109    61    60    1
   110    61    62    2
   111     4     3    2
   112    64    66   am
   113    11     9    1
   114     5     6    1
   115    60    59    1
   116     8     9    2
   117     8     7    1
   118     6     7    1
   119     9    10    1
   120    53    52    2
   121    59    52   am
   122    52    51    1
   123    51    50    1
   124    51    54    1
   125    54    55    1
   126    55    56    1
   127    57    56    1
   128    57    58    1
