@<TRIPOS>MOLECULE
tmp/2cibA01.pdb
 154 148 0 0 0
SMALL
GASTEIGER

@<TRIPOS>ATOM
      1  N        -22.1480   -6.0780   77.2920 N.3    68  GLN68      -0.1245
      2  CA       -21.1900   -5.1540   76.6930 C.3    68  GLN68       0.1566
      3  C        -21.6970   -3.7140   76.7510 C.2    68  GLN68       0.2260
      4  O        -20.9550   -2.7760   76.4710 O.2    68  GLN68      -0.2867
      5  CB       -20.9230   -5.5540   75.2450 C.3    68  GLN68       0.0367
      6  CG       -22.1860   -5.6820   74.4380 C.3    68  GLN68       0.0905
      7  CD       -21.8870   -6.3990   73.1570 C.2    68  GLN68       0.2608
      8  OE1      -20.7830   -6.8590   72.9540 O.2    68  GLN68      -0.2717
      9  NE2      -22.8690   -6.4850   72.2730 N.am   68  GLN68      -0.0878
     10  N        -17.5620   -0.1430   77.4760 N.3    72  TYR72      -0.1241
     11  CA       -16.7040    0.7970   76.7500 C.3    72  TYR72       0.1605
     12  C        -17.1230    2.2530   76.9750 C.2    72  TYR72       0.2264
     13  O        -17.7160    2.8860   76.0980 O.2    72  TYR72      -0.2867
     14  CB       -16.7490    0.4740   75.2510 C.3    72  TYR72       0.0534
     15  CG       -16.4060   -0.9620   74.9070 C.ar   72  TYR72      -0.0201
     16  CD1      -15.1700   -1.5060   75.2550 C.ar   72  TYR72      -0.0009
     17  CD2      -17.3050   -1.7680   74.2040 C.ar   72  TYR72      -0.0009
     18  CE1      -14.8340   -2.8110   74.9110 C.ar   72  TYR72       0.0417
     19  CE2      -16.9770   -3.0800   73.8490 C.ar   72  TYR72       0.0417
     20  CZ       -15.7400   -3.5910   74.2030 C.ar   72  TYR72       0.1957
     21  OH       -15.3900   -4.8690   73.8260 O.3    72  TYR72      -0.2866
     22  N        -15.5270    4.9390   76.8270 N.3    74  PHE74      -0.1227
     23  CA       -14.9140    5.8970   75.9110 C.3    74  PHE74       0.1736
     24  C        -15.7600    6.1870   74.6750 C.2    74  PHE74       0.2595
     25  O        -15.5010    7.1500   73.9540 O.2    74  PHE74      -0.2718
     26  CB       -13.5170    5.4070   75.4970 C.3    74  PHE74       0.0547
     27  CG       -13.4880    3.9870   74.9900 C.ar   74  PHE74      -0.0202
     28  CD1      -13.6620    3.7090   73.6390 C.ar   74  PHE74      -0.0042
     29  CD2      -13.2850    2.9270   75.8690 C.ar   74  PHE74      -0.0042
     30  CE1      -13.6330    2.3960   73.1710 C.ar   74  PHE74      -0.0003
     31  CE2      -13.2560    1.6140   75.4120 C.ar   74  PHE74      -0.0003
     32  CZ       -13.4300    1.3490   74.0590 C.ar   74  PHE74      -0.0000
     33  N        -16.7860    5.3760   74.4380 N.am   75  MET75      -0.1979
     34  CA       -17.6260    5.5820   73.2620 C.3    75  MET75       0.1605
     35  C        -18.7900    6.5510   73.4480 C.2    75  MET75       0.2287
     36  O        -19.2750    7.1270   72.4770 O.2    75  MET75      -0.2864
     37  CB       -18.1550    4.2390   72.7550 C.3    75  MET75       0.0413
     38  CG       -17.0720    3.2970   72.2440 C.3    75  MET75       0.0598
     39  SD       -15.9840    4.0750   71.0340 S.3    75  MET75      -0.1393
     40  CE       -17.1580    4.4370   69.7020 C.3    75  MET75       0.0692
     41  N        -20.3310    8.7370   70.2550 N.3    79  PHE79      -0.1241
     42  CA       -21.6390    8.5520   69.6450 C.3    79  PHE79       0.1605
     43  C        -22.5350    9.7400   69.9910 C.2    79  PHE79       0.2264
     44  O        -23.3400   10.1860   69.1710 O.2    79  PHE79      -0.2867
     45  CB       -22.2890    7.2560   70.1360 C.3    79  PHE79       0.0534
     46  CG       -21.5560    6.0070   69.7220 C.ar   79  PHE79      -0.0203
     47  CD1      -20.9120    5.9340   68.4890 C.ar   79  PHE79      -0.0042
     48  CD2      -21.5430    4.8890   70.5490 C.ar   79  PHE79      -0.0042
     49  CE1      -20.2680    4.7660   68.0850 C.ar   79  PHE79      -0.0003
     50  CE2      -20.9030    3.7150   70.1540 C.ar   79  PHE79      -0.0003
     51  CZ       -20.2650    3.6530   68.9190 C.ar   79  PHE79      -0.0000
     52  N        -21.8490    6.2320   64.6070 N.3   223  SER223     -0.1217
     53  CA       -22.0260    4.8920   65.1590 C.3   223  SER223      0.1889
     54  C        -22.0710    3.8190   64.0760 C.2   223  SER223      0.2288
     55  O        -21.4690    2.7560   64.2240 O.2   223  SER223     -0.2866
     56  CB       -23.3030    4.8270   66.0060 C.3   223  SER223      0.2089
     57  OG       -24.4320    5.2480   65.2620 O.3   223  SER223     -0.2183
     58  N        -18.4420    3.3060   62.9030 N.3   226  PHE226     -0.1227
     59  CA       -17.3930    2.9870   63.8720 C.3   226  PHE226      0.1736
     60  C        -16.8730    1.5620   63.9870 C.2   226  PHE226      0.2595
     61  O        -15.6850    1.3560   64.2560 O.2   226  PHE226     -0.2718
     62  CB       -17.7770    3.5090   65.2570 C.3   226  PHE226      0.0547
     63  CG       -16.5910    3.8930   66.0910 C.ar  226  PHE226     -0.0202
     64  CD1      -15.9340    2.9510   66.8690 C.ar  226  PHE226     -0.0042
     65  CD2      -16.0950    5.1920   66.0490 C.ar  226  PHE226     -0.0042
     66  CE1      -14.7930    3.2990   67.5940 C.ar  226  PHE226     -0.0003
     67  CE2      -14.9580    5.5480   66.7710 C.ar  226  PHE226     -0.0003
     68  CZ       -14.3080    4.5990   67.5420 C.ar  226  PHE226     -0.0000
     69  N        -17.7310    0.5750   63.7870 N.am  227  ALA227     -0.1980
     70  CA       -17.2840   -0.8070   63.8900 C.3   227  ALA227      0.1597
     71  C        -16.3170   -1.1710   62.7700 C.2   227  ALA227      0.2287
     72  O        -15.2670   -1.7800   63.0080 O.2   227  ALA227     -0.2864
     73  CB       -18.4890   -1.7500   63.8600 C.3   227  ALA227      0.0319
     74  N        -11.8850    1.6700   61.7040 N.3   230  HIS230     -0.1226
     75  CA       -10.5180    1.4190   62.1470 C.3   230  HIS230      0.1752
     76  C        -10.1100   -0.0320   61.9680 C.2   230  HIS230      0.2596
     77  O         -8.9330   -0.3330   61.7600 O.2   230  HIS230     -0.2718
     78  CB       -10.3090    1.8940   63.6010 C.3   230  HIS230      0.0759
     79  CG       -10.9110    1.0050   64.6470 C.ar  230  HIS230      0.0818
     80  ND1      -10.2400   -0.0720   65.1870 N.ar  230  HIS230     -0.2268
     81  CD2      -12.1000    1.0680   65.2940 C.ar  230  HIS230      0.1154
     82  CE1      -10.9890   -0.6310   66.1220 C.ar  230  HIS230      0.1986
     83  NE2      -12.1230    0.0420   66.2070 N.ar  230  HIS230     -0.2212
     84  N        -11.0810   -0.9330   62.0150 N.am  231  THR231     -0.1953
     85  CA       -10.7900   -2.3500   61.8520 C.3   231  THR231      0.1897
     86  C        -10.4060   -2.6720   60.4120 C.2   231  THR231      0.2313
     87  O         -9.3900   -3.3240   60.1600 O.2   231  THR231     -0.2863
     88  CB       -11.9940   -3.1970   62.2730 C.3   231  THR231      0.1794
     89  OG1      -13.1690   -2.7250   61.5930 O.3   231  THR231     -0.2208
     90  CG2      -12.2020   -3.0970   63.7840 C.3   231  THR231      0.0378
     91  N         -8.9550   -5.6050   67.0890 N.3   292  LEU292     -0.1231
     92  CA        -9.4770   -5.4920   68.4480 C.3   292  LEU292      0.1693
     93  C         -8.5990   -6.4350   69.2730 C.2   292  LEU292      0.2592
     94  O         -8.6620   -7.6570   69.1130 O.2   292  LEU292     -0.2718
     95  CB       -10.9460   -5.9240   68.5230 C.3   292  LEU292      0.0284
     96  CG       -11.9320   -5.0220   67.7710 C.3   292  LEU292      0.0019
     97  CD1      -13.3430   -5.5850   67.9010 C.3   292  LEU292      0.0001
     98  CD2      -11.8720   -3.6030   68.3240 C.3   292  LEU292      0.0001
     99  N         -7.7630   -5.8630   70.1360 N.am  293  ILE293     -0.1966
    100  CA        -6.8520   -6.6650   70.9460 C.3   293  ILE293      0.1727
    101  C         -7.4460   -7.1380   72.2650 C.2   293  ILE293      0.2616
    102  O         -6.9350   -8.0760   72.8830 O.2   293  ILE293     -0.2715
    103  CB        -5.5300   -5.9070   71.2090 C.3   293  ILE293      0.0290
    104  CG1       -5.7980   -4.5970   71.9500 C.3   293  ILE293      0.0022
    105  CG2       -4.8200   -5.6410   69.8770 C.3   293  ILE293      0.0023
    106  CD1       -4.5270   -3.8840   72.4050 C.3   293  ILE293      0.0001
    107  N         -8.5250   -6.4910   72.6940 N.am  294  ILE294     -0.1963
    108  CA        -9.2050   -6.8760   73.9230 C.3   294  ILE294      0.1727
    109  C        -10.7010   -6.6290   73.7390 C.2   294  ILE294      0.2616
    110  O        -11.1020   -5.6770   73.0670 O.2   294  ILE294     -0.2715
    111  CB        -8.6650   -6.0800   75.1470 C.3   294  ILE294      0.0290
    112  CG1       -9.2970   -6.6150   76.4390 C.3   294  ILE294      0.0022
    113  CG2       -8.9460   -4.5920   74.9740 C.3   294  ILE294      0.0023
    114  CD1       -8.7070   -6.0170   77.7220 C.3   294  ILE294      0.0001
    115  N        -11.5070   -7.5200   74.3080 N.am  295  LEU295     -0.1977
    116  CA       -12.9630   -7.4340   74.2390 C.3   295  LEU295      0.1596
    117  C        -13.4430   -7.3710   75.6840 C.2   295  LEU295      0.2287
    118  O        -13.0040   -8.1610   76.5170 O.2   295  LEU295     -0.2864
    119  CB       -13.5270   -8.6710   73.5300 C.3   295  LEU295      0.0297
    120  CG       -12.9670   -8.8850   72.1190 C.3   295  LEU295      0.0022
    121  CD1      -13.4820  -10.1930   71.5370 C.3   295  LEU295      0.0001
    122  CD2      -13.3550   -7.7050   71.2400 C.3   295  LEU295      0.0001
    123  N        -16.5900   -6.8980   78.8490 N.3   297  ARG297     -0.1245
    124  CA       -17.9390   -7.2250   79.3010 C.3   297  ARG297      0.1563
    125  C        -18.0640   -6.8350   80.7690 C.2   297  ARG297      0.2260
    126  O        -17.0630   -6.6620   81.4630 O.2   297  ARG297     -0.2867
    127  CB       -18.1990   -8.7300   79.2140 C.3   297  ARG297      0.0307
    128  CG       -18.1050   -9.3430   77.8370 C.3   297  ARG297      0.0489
    129  CD       -19.3350   -9.0440   77.0060 C.3   297  ARG297      0.2205
    130  NE       -19.3700   -9.8890   75.8190 N.pl3 297  ARG297     -0.0865
    131  CZ       -18.6440   -9.6860   74.7240 C.cat 297  ARG297      0.5346
    132  NH1      -17.8180   -8.6480   74.6430 N.pl3 297  ARG297      0.1354
    133  NH2      -18.7330  -10.5400   73.7160 N.pl3 297  ARG297      0.1354
    134  N        -18.5730  -12.0340   64.5200 N.3   365  CYS365     -0.1235
    135  CA       -18.6430  -10.7750   63.7820 C.3   365  CYS365      0.1677
    136  C        -19.6310  -10.8370   62.6250 C.2   365  CYS365      0.2270
    137  O        -19.4490  -11.6220   61.6990 O.2   365  CYS365     -0.2867
    138  CB       -17.2720  -10.3870   63.2230 C.3   365  CYS365      0.0956
    139  SG       -17.3240   -8.8480   62.2670 S.3   365  CYS365     -0.0801
    140  N         -7.6100    2.8960   73.0170 N.3   404  MET404     -0.1230
    141  CA        -8.3960    1.6720   72.9240 C.3   404  MET404      0.1702
    142  C         -8.5410    1.2940   71.4530 C.2   404  MET404      0.2592
    143  O         -8.6050    0.1130   71.1100 O.2   404  MET404     -0.2718
    144  CB        -9.7720    1.8570   73.5760 C.3   404  MET404      0.0401
    145  CG        -9.7260    1.9990   75.0980 C.3   404  MET404      0.0596
    146  SD        -8.9960    0.5700   75.9430 S.3   404  MET404     -0.1393
    147  CE       -10.2030   -0.6950   75.5780 C.3   404  MET404      0.0692
    148  N         -8.6020    2.3000   70.5860 N.am  405  VAL405     -0.1980
    149  CA        -8.6730    2.0350   69.1540 C.3   405  VAL405      0.1595
    150  C         -7.2320    1.9610   68.6590 C.2   405  VAL405      0.2287
    151  O         -6.5270    2.9710   68.6000 O.2   405  VAL405     -0.2864
    152  CB        -9.4280    3.1460   68.3860 C.3   405  VAL405      0.0276
    153  CG1       -9.2320    2.9650   66.8830 C.3   405  VAL405      0.0022
    154  CG2      -10.9210    3.0750   68.7080 C.3   405  VAL405      0.0022
@<TRIPOS>BOND
     1    87    86    2
     2    86    85    1
     3    89    88    1
     4   137   136    2
     5    74    75    1
     6    77    76    2
     7    85    84    1
     8    85    88    1
     9    76    84   am
    10    76    75    1
    11    75    78    1
    12   139   138    1
    13    88    90    1
    14   136   135    1
    15    71    72    2
    16    71    70    1
    17    58    59    1
    18   138   135    1
    19    78    79    1
    20   135   134    1
    21    69    70    1
    22    69    60   am
    23    73    70    1
    24    59    60    1
    25    59    62    1
    26    60    61    2
    27    54    55    2
    28    54    53    1
    29    52    53    1
    30    79    80   ar
    31    79    81   ar
    32    53    56    1
    33    80    82   ar
    34    62    63    1
    35    57    56    1
    36    81    83   ar
    37    65    63   ar
    38    65    67   ar
    39    63    64   ar
    40    82    83   ar
    41    67    68   ar
    42    64    66   ar
    43   153   152    1
    44    91    92    1
    45    68    66   ar
    46    96    97    1
    47    96    98    1
    48    96    95    1
    49    49    47   ar
    50    49    51   ar
    51   152   154    1
    52   152   149    1
    53    92    95    1
    54    92    93    1
    55    47    46   ar
    56   151   150    2
    57   150   149    1
    58    51    50   ar
    59    94    93    2
    60   149   148    1
    61    44    43    2
    62    93    99   am
    63    42    43    1
    64    42    45    1
    65    42    41    1
    66    40    39    1
    67    46    45    1
    68    46    48   ar
    69   105   103    1
    70    99   100    1
    71    50    48   ar
    72   148   142   am
    73   100   103    1
    74   100   101    1
    75    39    38    1
    76   143   142    2
    77   103   104    1
    78   122   120    1
    79   142   141    1
    80   121   120    1
    81   104   106    1
    82   120   119    1
    83    38    37    1
    84   101   107   am
    85   101   102    2
    86     9     7   am
    87    36    35    2
    88   107   108    1
    89    37    34    1
    90   141   140    1
    91   141   144    1
    92     8     7    2
    93   110   109    2
    94     7     6    1
    95    30    28   ar
    96    30    32   ar
    97    34    35    1
    98    34    33    1
    99   119   116    1
   100   144   145    1
   101    28    27   ar
   102   133   131    1
   103   109   108    1
   104   109   115   am
   105    21    20    1
   106    19    20   ar
   107    19    17   ar
   108   108   111    1
   109    25    24    2
   110    32    31   ar
   111    20    18   ar
   112    17    15   ar
   113   116   115    1
   114   116   117    1
   115     6     5    1
   116    33    24   am
   117   132   131    1
   118    24    23    1
   119   131   130    2
   120    15    14    1
   121    15    16   ar
   122    18    16   ar
   123   113   111    1
   124    27    26    1
   125    27    29   ar
   126   145   146    1
   127   111   112    1
   128     5     2    1
   129    14    11    1
   130    31    29   ar
   131    26    23    1
   132   147   146    1
   133   117   118    2
   134   130   129    1
   135    23    22    1
   136    13    12    2
   137   112   114    1
   138     4     3    2
   139     2     3    1
   140     2     1    1
   141    11    12    1
   142    11    10    1
   143   129   128    1
   144   128   127    1
   145   123   124    1
   146   127   124    1
   147   124   125    1
   148   125   126    2
