@<TRIPOS>MOLECULE
tmp/2cicA00.pdb
 191 179 0 0 0
SMALL
GASTEIGER

@<TRIPOS>ATOM
      1  N         20.3640   48.7780   16.9610 N.3    14  GLN14      -0.1245
      2  CA        21.1750   49.9860   16.7470 C.3    14  GLN14       0.1566
      3  C         21.4860   50.6460   18.0750 C.2    14  GLN14       0.2260
      4  O         22.5850   51.1320   18.2970 O.2    14  GLN14      -0.2867
      5  CB        20.4900   50.9810   15.8410 C.3    14  GLN14       0.0367
      6  CG        21.4130   52.0990   15.3380 C.3    14  GLN14       0.0905
      7  CD        22.5620   51.5420   14.5210 C.2    14  GLN14       0.2608
      8  OE1       22.3200   50.7670   13.5960 O.2    14  GLN14      -0.2717
      9  NE2       23.8100   51.9890   14.8080 N.am   14  GLN14      -0.0878
     10  N         24.1930   48.5770   19.7840 N.3    17  LEU17      -0.1231
     11  CA        25.4660   48.7680   19.1510 C.3    17  LEU17       0.1693
     12  C         26.0520   50.1690   19.4920 C.2    17  LEU17       0.2592
     13  O         27.2340   50.3060   19.7610 O.2    17  LEU17      -0.2718
     14  CB        25.2720   48.6090   17.6300 C.3    17  LEU17       0.0284
     15  CG        26.4920   49.0210   16.8120 C.3    17  LEU17       0.0019
     16  CD1       27.7450   48.2160   17.0960 C.3    17  LEU17       0.0001
     17  CD2       26.1830   48.9010   15.3600 C.3    17  LEU17       0.0001
     18  N         25.2250   51.1940   19.4700 N.am   18  ASN18      -0.1974
     19  CA        25.7050   52.5700   19.7000 C.3    18  ASN18       0.1688
     20  C         26.1220   52.7560   21.1830 C.2    18  ASN18       0.2292
     21  O         27.1100   53.3900   21.4610 O.2    18  ASN18      -0.2864
     22  CB        24.6210   53.5760   19.3430 C.3    18  ASN18       0.1181
     23  CG        24.5350   53.8120   17.8480 C.2    18  ASN18       0.2629
     24  OD1       25.2750   53.1410   17.0650 O.2    18  ASN18      -0.2716
     25  ND2       23.5900   54.6870   17.4230 N.am   18  ASN18      -0.0877
     26  N         29.4800   51.0440   21.3210 N.3    21  THR21      -0.1203
     27  CA        30.4880   51.7410   20.5450 C.3    21  THR21       0.1994
     28  C         30.8720   53.0530   21.2060 C.2    21  THR21       0.2617
     29  O         32.0710   53.3980   21.2920 O.2    21  THR21      -0.2717
     30  CB        29.9590   52.0400   19.1120 C.3    21  THR21       0.1784
     31  OG1       29.6000   50.8090   18.4870 O.3    21  THR21      -0.2211
     32  CG2       31.0100   52.7260   18.2730 C.3    21  THR21       0.0376
     33  N         29.8540   53.7730   21.6670 N.am   22  ASN22      -0.1974
     34  CA        29.9880   55.1620   22.0650 C.3    22  ASN22       0.1688
     35  C         29.8370   55.4340   23.5450 C.2    22  ASN22       0.2292
     36  O         30.0510   56.5540   23.9440 O.2    22  ASN22      -0.2864
     37  CB        28.9770   55.9890   21.3350 C.3    22  ASN22       0.1181
     38  CG        29.0710   55.7640   19.8330 C.2    22  ASN22       0.2629
     39  OD1       30.2050   55.8290   19.3080 O.2    22  ASN22      -0.2716
     40  ND2       27.9170   55.5140   19.1530 N.am   22  ASN22      -0.0877
     41  N         25.8820   62.3510   13.0090 N.3    39  TRP39      -0.1241
     42  CA        25.2370   61.3340   12.1460 C.3    39  TRP39       0.1605
     43  C         25.0310   61.8600   10.7020 C.2    39  TRP39       0.2264
     44  O         25.0860   61.0360    9.7530 O.2    39  TRP39      -0.2867
     45  CB        23.9190   60.9280   12.7350 C.3    39  TRP39       0.0550
     46  CG        24.0810   60.3570   14.1160 C.ar   39  TRP39       0.0003
     47  CD1       23.5660   60.8460   15.2940 C.ar   39  TRP39       0.0946
     48  CD2       24.7890   59.1580   14.4420 C.ar   39  TRP39       0.0152
     49  NE1       23.9820   60.0380   16.3500 N.ar   39  TRP39      -0.2442
     50  CE2       24.7220   58.9990   15.8520 C.ar   39  TRP39       0.0810
     51  CE3       25.5510   58.2430   13.7110 C.ar   39  TRP39       0.0012
     52  CZ2       25.3100   57.8980   16.5030 C.ar   39  TRP39       0.0191
     53  CZ3       26.1440   57.1410   14.3770 C.ar   39  TRP39       0.0001
     54  CH2       26.0250   57.0030   15.7570 C.ar   39  TRP39       0.0015
     55  N         28.1610   61.0120    9.0340 N.3    42  CYS42      -0.1235
     56  CA        28.2530   59.5450    8.8380 C.3    42  CYS42       0.1677
     57  C         27.4200   59.1600    7.5930 C.2    42  CYS42       0.2270
     58  O         27.8690   58.3980    6.7510 O.2    42  CYS42      -0.2867
     59  CB        27.6670   58.8080    9.9940 C.3    42  CYS42       0.0956
     60  SG        28.7680   58.9320   11.4910 S.3    42  CYS42      -0.0801
     61  N         28.9680   57.8600    4.0890 N.3    46  GLU46      -0.1245
     62  CA        28.6660   56.5060    3.6600 C.3    46  GLU46       0.1567
     63  C         28.0330   56.5500    2.2440 C.2    46  GLU46       0.2260
     64  O         28.2530   55.6090    1.4510 O.2    46  GLU46      -0.2867
     65  CB        27.7940   55.7780    4.6300 C.3    46  GLU46       0.0388
     66  CG        27.8430   54.3070    4.4920 C.3    46  GLU46       0.1160
     67  CD        29.2180   53.7120    4.8550 C.2    46  GLU46       0.3649
     68  OE1       29.8000   52.9390    4.0570 O.co2  46  GLU46      -0.2457
     69  OE2       29.7690   54.1250    5.8980 O.co2  46  GLU46      -0.2457
     70  N         30.7740   56.5210   -0.0950 N.3    49  GLU49      -0.1245
     71  CA        31.2860   55.1760   -0.2300 C.3    49  GLU49       0.1567
     72  C         30.4170   54.3400   -1.1980 C.2    49  GLU49       0.2260
     73  O         30.9520   53.5460   -2.0040 O.2    49  GLU49      -0.2867
     74  CB        31.3570   54.4990    1.1330 C.3    49  GLU49       0.0388
     75  CG        32.3740   55.0970    2.0040 C.3    49  GLU49       0.1160
     76  CD        33.8240   54.9330    1.4330 C.2    49  GLU49       0.3649
     77  OE1       34.1490   53.8440    0.9410 O.co2  49  GLU49      -0.2457
     78  OE2       34.5590   55.9700    1.2870 O.co2  49  GLU49      -0.2457
     79  N         26.4240   48.4770    1.5620 N.3    74  GLU74      -0.1245
     80  CA        26.5000   49.9040    1.7240 C.3    74  GLU74       0.1567
     81  C         25.1690   50.5130    2.0970 C.2    74  GLU74       0.2260
     82  O         25.0740   51.4240    2.9230 O.2    74  GLU74      -0.2867
     83  CB        27.0370   50.5730    0.4630 C.3    74  GLU74       0.0388
     84  CG        28.5230   50.4630    0.3290 C.3    74  GLU74       0.1160
     85  CD        29.2040   51.1430    1.4810 C.2    74  GLU74       0.3649
     86  OE1       28.6880   52.1900    1.9500 O.co2  74  GLU74      -0.2457
     87  OE2       30.2520   50.6670    1.9120 O.co2  74  GLU74      -0.2457
     88  N         24.8160   49.9150    5.6140 N.3    77  ASP77      -0.1239
     89  CA        25.6370   50.8570    6.4160 C.3    77  ASP77       0.1674
     90  C         24.8730   52.1690    6.5930 C.2    77  ASP77       0.2266
     91  O         24.8170   52.7640    7.6760 O.2    77  ASP77      -0.2867
     92  CB        26.9990   51.0660    5.7520 C.3    77  ASP77       0.1410
     93  CG        27.9180   49.8410    5.8270 C.2    77  ASP77       0.3668
     94  OD1       27.8480   49.0580    6.7910 O.co2  77  ASP77      -0.2456
     95  OD2       28.7380   49.7080    4.8830 O.co2  77  ASP77      -0.2456
     96  N         22.1950   51.8880    9.1790 N.3    80  HIS80      -0.1226
     97  CA        22.6990   52.0260   10.5950 C.3    80  HIS80       0.1752
     98  C         22.7600   53.5010   11.0210 C.2    80  HIS80       0.2596
     99  O         22.3600   53.8760   12.1620 O.2    80  HIS80      -0.2718
    100  CB        24.1060   51.4890   10.7200 C.3    80  HIS80       0.0759
    101  CG        24.2290   50.0060   10.8580 C.ar   80  HIS80       0.0818
    102  ND1       23.9950   49.1240    9.8100 N.ar   80  HIS80      -0.2268
    103  CD2       24.6780   49.2550   11.8920 C.ar   80  HIS80       0.1154
    104  CE1       24.2670   47.8940   10.2260 C.ar   80  HIS80       0.1986
    105  NE2       24.6500   47.9400   11.4910 N.ar   80  HIS80      -0.2212
    106  N         23.2720   54.3660   10.1420 N.am   81  PHE81      -0.1976
    107  CA        23.4040   55.7780   10.4810 C.3    81  PHE81       0.1639
    108  C         22.0950   56.4990   10.4760 C.2    81  PHE81       0.2290
    109  O         21.9100   57.3930   11.2790 O.2    81  PHE81      -0.2864
    110  CB        24.4170   56.4160    9.5630 C.3    81  PHE81       0.0560
    111  CG        25.8280   55.8380    9.7080 C.ar   81  PHE81      -0.0200
    112  CD1       26.4880   55.8170   10.9390 C.ar   81  PHE81      -0.0042
    113  CD2       26.5210   55.4150    8.6060 C.ar   81  PHE81      -0.0042
    114  CE1       27.7520   55.3620   11.0350 C.ar   81  PHE81      -0.0003
    115  CE2       27.8210   54.9560    8.6790 C.ar   81  PHE81      -0.0003
    116  CZ        28.4430   54.9570    9.8820 C.ar   81  PHE81      -0.0000
    117  N         25.6620   42.8050    9.5350 N.3   169  LYS169     -0.1245
    118  CA        26.6180   43.8850    9.6210 C.3   169  LYS169      0.1561
    119  C         26.6450   44.4420   11.0390 C.2   169  LYS169      0.2260
    120  O         27.7100   44.8230   11.5410 O.2   169  LYS169     -0.2867
    121  CB        26.3860   44.9400    8.5500 C.3   169  LYS169      0.0271
    122  CG        27.4010   46.1090    8.5520 C.3   169  LYS169      0.0035
    123  CD        28.8420   45.6160    8.4800 C.3   169  LYS169      0.0206
    124  CE        29.8630   46.7540    8.3100 C.3   169  LYS169      0.1093
    125  NZ        29.8500   47.2800    6.9220 N.3   169  LYS169     -0.1314
    126  N         29.9370   44.9890   13.2210 N.3   173  ASN173     -0.1240
    127  CA        30.2400   46.2630   13.8740 C.3   173  ASN173      0.1653
    128  C         30.5610   46.0900   15.3720 C.2   173  ASN173      0.2266
    129  O         31.5180   46.6940   15.8550 O.2   173  ASN173     -0.2867
    130  CB        29.0580   47.2030   13.6900 C.3   173  ASN173      0.1155
    131  CG        28.9850   47.7620   12.2670 C.2   173  ASN173      0.2627
    132  OD1       30.0190   47.9840   11.6560 O.2   173  ASN173     -0.2716
    133  ND2       27.7630   48.0580   11.7750 N.am  173  ASN173     -0.0877
    134  N         34.0610   44.4080   15.6400 N.3   176  ARG176     -0.1231
    135  CA        35.1540   45.3870   15.4890 C.3   176  ARG176      0.1694
    136  C         35.4030   46.1390   16.7840 C.2   176  ARG176      0.2591
    137  O         36.5440   46.3330   17.1840 O.2   176  ARG176     -0.2718
    138  CB        34.7730   46.3860   14.3910 C.3   176  ARG176      0.0321
    139  CG        34.8620   45.8280   13.0000 C.3   176  ARG176      0.0489
    140  CD        34.2100   46.7540   11.9740 C.3   176  ARG176      0.2205
    141  NE        34.4660   46.3610   10.5790 N.pl3 176  ARG176     -0.0865
    142  CZ        33.9220   46.9930    9.5480 C.cat 176  ARG176      0.5346
    143  NH1       33.1350   48.0220    9.7400 N.pl3 176  ARG176      0.1354
    144  NH2       34.1980   46.6040    8.3210 N.pl3 176  ARG176      0.1354
    145  N         34.3190   46.6310   17.4060 N.am  177  GLN177     -0.1979
    146  CA        34.4390   47.4030   18.6630 C.3   177  GLN177      0.1601
    147  C         35.0850   46.6010   19.7760 C.2   177  GLN177      0.2287
    148  O         35.7790   47.1840   20.5850 O.2   177  GLN177     -0.2864
    149  CB        33.0890   47.9780   19.0630 C.3   177  GLN177      0.0394
    150  CG        32.6050   49.0680   18.1070 C.3   177  GLN177      0.0908
    151  CD        33.5470   50.2340   18.0840 C.2   177  GLN177      0.2608
    152  OE1       34.0450   50.6690   19.1450 O.2   177  GLN177     -0.2717
    153  NE2       33.8670   50.7280   16.8890 N.am  177  GLN177     -0.0878
    154  N         38.9550   48.4590   17.2750 N.3   181  TYR181     -0.1241
    155  CA        38.6800   49.3440   16.1370 C.3   181  TYR181      0.1605
    156  C         38.9970   50.7820   16.4920 C.2   181  TYR181      0.2264
    157  O         39.5910   51.5130   15.7040 O.2   181  TYR181     -0.2867
    158  CB        37.2410   49.1530   15.6990 C.3   181  TYR181      0.0534
    159  CG        36.9670   49.3660   14.2460 C.ar  181  TYR181     -0.0201
    160  CD1       37.5100   48.5620   13.2880 C.ar  181  TYR181     -0.0009
    161  CD2       36.0480   50.3460   13.8290 C.ar  181  TYR181     -0.0009
    162  CE1       37.2220   48.7120   11.9490 C.ar  181  TYR181      0.0417
    163  CE2       35.7620   50.5490   12.4900 C.ar  181  TYR181      0.0417
    164  CZ        36.3400   49.7180   11.5200 C.ar  181  TYR181      0.1957
    165  OH        36.0220   49.9080   10.1730 O.3   181  TYR181     -0.2866
    166  N         41.7050   44.7370    9.5160 N.3   188  LYS188     -0.1245
    167  CA        40.5100   44.6810    8.6640 C.3   188  LYS188      0.1561
    168  C         40.5690   43.6030    7.5780 C.2   188  LYS188      0.2260
    169  O         39.5390   43.1720    7.0530 O.2   188  LYS188     -0.2867
    170  CB        40.2930   46.0230    7.9850 C.3   188  LYS188      0.0271
    171  CG        39.4230   46.9390    8.7500 C.3   188  LYS188      0.0035
    172  CD        38.8400   48.0790    7.8080 C.3   188  LYS188      0.0206
    173  CE        37.3900   48.1610    7.9820 C.3   188  LYS188      0.1093
    174  NZ        36.8260   49.4270    7.5200 N.3   188  LYS188     -0.1314
    175  N         38.7000   41.0610    3.0230 N.3   194  GLU194     -0.1245
    176  CA        38.2360   42.1260    3.9290 C.3   194  GLU194      0.1567
    177  C         37.1870   41.5430    4.8460 C.2   194  GLU194      0.2260
    178  O         36.3960   40.6630    4.4500 O.2   194  GLU194     -0.2867
    179  CB        37.6810   43.3010    3.1330 C.3   194  GLU194      0.0388
    180  CG        38.7470   43.9300    2.2840 C.3   194  GLU194      0.1160
    181  CD        38.3540   45.1800    1.5620 C.2   194  GLU194      0.3649
    182  OE1       37.1870   45.5770    1.6250 O.co2 194  GLU194     -0.2457
    183  OE2       39.2480   45.7640    0.9110 O.co2 194  GLU194     -0.2457
    184  N         34.3840   42.6310    5.7180 N.3   196  ASN196     -0.1240
    185  CA        33.0170   42.6820    5.1140 C.3   196  ASN196      0.1653
    186  C         32.7440   41.5200    4.1920 C.2   196  ASN196      0.2266
    187  O         31.6100   41.0280    4.1080 O.2   196  ASN196     -0.2867
    188  CB        32.8050   43.9670    4.3340 C.3   196  ASN196      0.1155
    189  CG        32.3730   45.1280    5.2150 C.2   196  ASN196      0.2627
    190  OD1       31.3210   45.0450    5.8820 O.2   196  ASN196     -0.2716
    191  ND2       33.1510   46.2170    5.1980 N.am  196  ASN196     -0.0877
@<TRIPOS>BOND
     1    73    72    2
     2    72    71    1
     3    71    70    1
     4    71    74    1
     5    84    83    1
     6    84    85    1
     7    83    80    1
     8   183   181   ar
     9    77    76   ar
    10    74    75    1
    11    78    76   ar
    12    76    75    1
    13    64    63    2
    14    85    87   ar
    15    85    86   ar
    16    79    80    1
    17   181   182   ar
    18   181   180    1
    19    80    81    1
    20    81    82    2
    21    63    62    1
    22   180   179    1
    23   175   176    1
    24   179   176    1
    25    62    61    1
    26    62    65    1
    27   176   177    1
    28    68    67   ar
    29   187   186    2
    30   186   185    1
    31   188   185    1
    32   188   189    1
    33   178   177    2
    34    66    65    1
    35    66    67    1
    36    67    69   ar
    37    95    93   ar
    38   185   184    1
    39   191   189   am
    40   189   190    2
    41    88    89    1
    42    92    93    1
    43    92    89    1
    44    93    94   ar
    45    89    90    1
    46    90    91    2
    47    58    57    2
    48   125   124    1
    49   169   168    2
    50   174   173    1
    51   168   167    1
    52    57    56    1
    53   172   173    1
    54   172   171    1
    55   170   167    1
    56   170   171    1
    57   124   123    1
    58   144   142    1
    59   123   122    1
    60   121   122    1
    61   121   118    1
    62   113   115   ar
    63   113   111   ar
    64   167   166    1
    65   115   116   ar
    66    56    55    1
    67    56    59    1
    68    96    97    1
    69   117   118    1
    70   142   143    1
    71   142   141    2
    72   110   111    1
    73   110   107    1
    74   118   119    1
    75   111   112   ar
    76    44    43    2
    77   102   104   ar
    78   102   101   ar
    79   116   114   ar
    80    59    60    1
    81   106   107    1
    82   106    98   am
    83   165   164    1
    84   104   105   ar
    85   108   107    1
    86   108   109    2
    87   141   140    1
    88    97   100    1
    89    97    98    1
    90    43    42    1
    91   100   101    1
    92   101   103   ar
    93   112   114   ar
    94    98    99    2
    95   119   120    2
    96   105   103   ar
    97   164   162   ar
    98   164   163   ar
    99   132   131    2
   100   133   131   am
   101   162   160   ar
   102   140   139    1
   103    42    45    1
   104    42    41    1
   105   131   130    1
   106   163   161   ar
   107    45    46    1
   108   139   138    1
   109   126   127    1
   110   160   159   ar
   111     8     7    2
   112   130   127    1
   113    51    53   ar
   114    51    48   ar
   115   161   159   ar
   116   127   128    1
   117    46    48   ar
   118    46    47   ar
   119   159   158    1
   120    53    54   ar
   121   138   135    1
   122    48    50   ar
   123     7     9   am
   124     7     6    1
   125    47    49   ar
   126     6     5    1
   127    17    15    1
   128   128   129    2
   129   135   134    1
   130   135   136    1
   131   158   155    1
   132   157   156    2
   133    54    52   ar
   134     5     2    1
   135    50    49   ar
   136    50    52   ar
   137   155   156    1
   138   155   154    1
   139     2     1    1
   140     2     3    1
   141   136   137    2
   142   136   145   am
   143    15    16    1
   144    15    14    1
   145   153   151   am
   146    24    23    2
   147   145   146    1
   148    25    23   am
   149    14    11    1
   150    23    22    1
   151     3     4    2
   152   151   150    1
   153   151   152    2
   154   150   149    1
   155    32    30    1
   156    31    30    1
   157   146   149    1
   158   146   147    1
   159    30    27    1
   160    11    12    1
   161    11    10    1
   162    40    38   am
   163    39    38    2
   164    22    19    1
   165    18    12   am
   166    18    19    1
   167    12    13    2
   168    19    20    1
   169   147   148    2
   170    38    37    1
   171    27    28    1
   172    27    26    1
   173    20    21    2
   174    28    29    2
   175    28    33   am
   176    37    34    1
   177    33    34    1
   178    34    35    1
   179    35    36    2
