@<TRIPOS>MOLECULE
tmp/2ciiA00.pdb
 178 174 0 0 0
SMALL
GASTEIGER

@<TRIPOS>ATOM
      1  N         16.4780    2.8200   56.4390 N.3    70  GLN70      -0.1245
      2  CA        15.3590    3.6810   56.0900 C.3    70  GLN70       0.1566
      3  C         14.0310    3.1230   56.6280 C.2    70  GLN70       0.2260
      4  O         13.1350    3.8790   57.0260 O.2    70  GLN70      -0.2867
      5  CB        15.2960    3.8470   54.5690 C.3    70  GLN70       0.0367
      6  CG        16.4990    4.5880   53.9770 C.3    70  GLN70       0.0905
      7  CD        16.6430    6.0070   54.5180 C.2    70  GLN70       0.2608
      8  OE1       17.3750    6.2540   55.4830 O.2    70  GLN70      -0.2717
      9  NE2       15.9240    6.9440   53.9070 N.am   70  GLN70      -0.0878
     10  N         14.0300    4.5560   59.9680 N.3    73  TRP73      -0.1241
     11  CA        13.8280    5.9950   59.8660 C.3    73  TRP73       0.1605
     12  C         12.3730    6.3220   59.5560 C.2    73  TRP73       0.2264
     13  O         11.8000    7.2270   60.1690 O.2    73  TRP73      -0.2867
     14  CB        14.7060    6.5880   58.7630 C.3    73  TRP73       0.0550
     15  CG        14.7680    8.0840   58.7940 C.ar   73  TRP73       0.0003
     16  CD1       15.6790    8.8490   59.4620 C.ar   73  TRP73       0.0946
     17  CD2       13.8590    9.0020   58.1680 C.ar   73  TRP73       0.0152
     18  NE1       15.3990   10.1830   59.2930 N.ar   73  TRP73      -0.2442
     19  CE2       14.2900   10.3090   58.5020 C.ar   73  TRP73       0.0810
     20  CE3       12.7280    8.8500   57.3540 C.ar   73  TRP73       0.0012
     21  CZ2       13.6250   11.4590   58.0560 C.ar   73  TRP73       0.0191
     22  CZ3       12.0640    9.9980   56.9070 C.ar   73  TRP73       0.0001
     23  CH2       12.5200   11.2850   57.2600 C.ar   73  TRP73       0.0015
     24  N          9.8480    5.4940   62.5420 N.3    76  VAL76      -0.1231
     25  CA         9.7710    6.5370   63.5670 C.3    76  VAL76       0.1692
     26  C          9.1430    7.8180   63.0590 C.2    76  VAL76       0.2592
     27  O          8.2940    8.4070   63.7310 O.2    76  VAL76      -0.2718
     28  CB        11.1590    6.8800   64.1790 C.3    76  VAL76       0.0266
     29  CG1       11.6290    5.7410   65.0530 C.3    76  VAL76       0.0020
     30  CG2       12.1660    7.1510   63.0900 C.3    76  VAL76       0.0020
     31  N          9.5530    8.2590   61.8790 N.am   77  SER77      -0.1952
     32  CA         8.9750    9.4680   61.3110 C.3    77  SER77       0.1924
     33  C          7.4570    9.3390   61.2550 C.2    77  SER77       0.2314
     34  O          6.7410   10.2570   61.6600 O.2    77  SER77      -0.2863
     35  CB         9.5370    9.7180   59.9200 C.3    77  SER77       0.2116
     36  OG        10.9250    9.9750   60.0050 O.3    77  SER77      -0.2180
     37  N          6.0500    9.7130   64.6340 N.3    80  ASN80      -0.1225
     38  CA         6.1000   11.1140   65.0460 C.3    80  ASN80       0.1785
     39  C          5.0580   11.9500   64.3020 C.2    80  ASN80       0.2597
     40  O          4.3880   12.7970   64.8950 O.2    80  ASN80      -0.2718
     41  CB         7.4910   11.7050   64.8100 C.3    80  ASN80       0.1169
     42  CG         8.5520   11.0500   65.6670 C.2    80  ASN80       0.2627
     43  OD1        8.2470   10.4110   66.6780 O.2    80  ASN80      -0.2716
     44  ND2        9.8070   11.2150   65.2760 N.am   80  ASN80      -0.0877
     45  N          4.9260   11.7130   63.0030 N.am   81  LEU81      -0.1980
     46  CA         3.9540   12.4430   62.2110 C.3    81  LEU81       0.1596
     47  C          2.5560   12.1940   62.7650 C.2    81  LEU81       0.2287
     48  O          1.7680   13.1260   62.9380 O.2    81  LEU81      -0.2864
     49  CB         4.0390   12.0000   60.7580 C.3    81  LEU81       0.0297
     50  CG         4.6850   13.0050   59.8100 C.3    81  LEU81       0.0022
     51  CD1        5.6980   13.8640   60.5390 C.3    81  LEU81       0.0001
     52  CD2        5.3380   12.2490   58.6740 C.3    81  LEU81       0.0001
     53  N          2.1490   14.7200   65.6380 N.3    84  TYR84      -0.1241
     54  CA         2.0750   16.1110   65.2190 C.3    84  TYR84       0.1605
     55  C          0.6820   16.4880   64.7360 C.2    84  TYR84       0.2264
     56  O          0.2070   17.5890   64.9930 O.2    84  TYR84      -0.2867
     57  CB         3.0660   16.3960   64.0870 C.3    84  TYR84       0.0534
     58  CG         4.5220   16.0990   64.3870 C.ar   84  TYR84      -0.0201
     59  CD1        5.0170   16.1240   65.6930 C.ar   84  TYR84      -0.0009
     60  CD2        5.4210   15.8690   63.3490 C.ar   84  TYR84      -0.0009
     61  CE1        6.3810   15.9290   65.9510 C.ar   84  TYR84       0.0417
     62  CE2        6.7730   15.6790   63.5910 C.ar   84  TYR84       0.0417
     63  CZ         7.2510   15.7110   64.8920 C.ar   84  TYR84       0.1957
     64  OH         8.5960   15.5410   65.1140 O.3    84  TYR84      -0.2866
     65  N          4.1420    8.4510   53.9050 N.3    95  LEU95      -0.1245
     66  CA         5.2400    9.3900   54.0380 C.3    95  LEU95       0.1561
     67  C          6.0620    9.0880   52.8060 C.2    95  LEU95       0.2260
     68  O          6.3060    7.9270   52.5040 O.2    95  LEU95      -0.2867
     69  CB         6.0580    9.1300   55.3110 C.3    95  LEU95       0.0270
     70  CG         7.2770   10.0410   55.5230 C.3    95  LEU95       0.0019
     71  CD1        6.8450   11.5040   55.5100 C.3    95  LEU95       0.0001
     72  CD2        7.9480    9.7030   56.8530 C.3    95  LEU95       0.0001
     73  N         10.1800   16.0420   51.2320 N.3   116  PHE116     -0.1241
     74  CA         9.3090   15.0480   51.8450 C.3   116  PHE116      0.1605
     75  C          7.8200   15.3970   51.7120 C.2   116  PHE116      0.2264
     76  O          7.4580   16.5460   51.4550 O.2   116  PHE116     -0.2867
     77  CB         9.6590   14.8840   53.3280 C.3   116  PHE116      0.0534
     78  CG        11.0640   14.4210   53.5740 C.ar  116  PHE116     -0.0203
     79  CD1       12.1280   15.3080   53.4820 C.ar  116  PHE116     -0.0042
     80  CD2       11.3250   13.0840   53.8780 C.ar  116  PHE116     -0.0042
     81  CE1       13.4310   14.8720   53.6870 C.ar  116  PHE116     -0.0003
     82  CE2       12.6280   12.6330   54.0870 C.ar  116  PHE116     -0.0003
     83  CZ        13.6860   13.5270   53.9910 C.ar  116  PHE116     -0.0000
     84  N          5.5680   18.3360   52.7550 N.3   123  TYR123     -0.1227
     85  CA         5.7290   18.4770   54.1950 C.3   123  TYR123      0.1736
     86  C          6.8690   19.4350   54.5260 C.2   123  TYR123      0.2595
     87  O          6.6800   20.4520   55.1920 O.2   123  TYR123     -0.2718
     88  CB         5.9910   17.1210   54.8340 C.3   123  TYR123      0.0548
     89  CG         6.0970   17.2070   56.3290 C.ar  123  TYR123     -0.0200
     90  CD1        4.9740   17.4480   57.1080 C.ar  123  TYR123     -0.0009
     91  CD2        7.3260   17.0960   56.9630 C.ar  123  TYR123     -0.0009
     92  CE1        5.0710   17.5820   58.4820 C.ar  123  TYR123      0.0417
     93  CE2        7.4340   17.2250   58.3380 C.ar  123  TYR123      0.0417
     94  CZ         6.3050   17.4660   59.0880 C.ar  123  TYR123      0.1957
     95  OH         6.4090   17.5770   60.4440 O.3   123  TYR123     -0.2866
     96  N          8.0610   19.1000   54.0630 N.am  124  ILE124     -0.1980
     97  CA         9.2160   19.9430   54.2880 C.3   124  ILE124      0.1595
     98  C         10.1930   19.5540   53.1940 C.2   124  ILE124      0.2287
     99  O         10.2150   18.4040   52.7670 O.2   124  ILE124     -0.2864
    100  CB         9.8350   19.7080   55.6990 C.3   124  ILE124      0.0276
    101  CG1       10.8840   20.7930   55.9950 C.3   124  ILE124      0.0022
    102  CG2       10.4470   18.3050   55.7850 C.3   124  ILE124      0.0022
    103  CD1       11.3640   20.8180   57.4420 C.3   124  ILE124      0.0001
    104  N          9.5170   20.0630   62.7610 N.3   143  THR143     -0.1218
    105  CA        10.5990   19.3050   62.1630 C.3   143  THR143      0.1862
    106  C         11.6710   20.2780   61.7190 C.2   143  THR143      0.2287
    107  O         12.8650   20.0140   61.8540 O.2   143  THR143     -0.2866
    108  CB        10.1210   18.5090   60.9450 C.3   143  THR143      0.1770
    109  OG1        9.0380   17.6520   61.3280 O.3   143  THR143     -0.2211
    110  CG2       11.2530   17.6730   60.3980 C.3   143  THR143      0.0375
    111  N         13.6080   21.5780   64.5940 N.3   146  LYS146     -0.1231
    112  CA        14.2800   20.4030   65.1340 C.3   146  LYS146      0.1693
    113  C         15.4890   20.0100   64.2810 C.2   146  LYS146      0.2592
    114  O         16.5100   19.5580   64.8010 O.2   146  LYS146     -0.2718
    115  CB        13.2690   19.2540   65.2170 C.3   146  LYS146      0.0285
    116  CG        13.7970   17.9280   65.7360 C.3   146  LYS146      0.0035
    117  CD        12.6640   16.9080   65.8080 C.3   146  LYS146      0.0206
    118  CE        13.1900   15.5000   66.0060 C.3   146  LYS146      0.1093
    119  NZ        12.0830   14.5030   66.0450 N.3   146  LYS146     -0.1314
    120  N         15.3780   20.1980   62.9700 N.am  147  TRP147     -0.1976
    121  CA        16.4650   19.8540   62.0600 C.3   147  TRP147      0.1640
    122  C         17.5370   20.9390   61.9580 C.2   147  TRP147      0.2290
    123  O         18.6770   20.6670   61.5690 O.2   147  TRP147     -0.2864
    124  CB        15.9010   19.5400   60.6700 C.3   147  TRP147      0.0576
    125  CG        15.2410   18.1970   60.5810 C.ar  147  TRP147      0.0006
    126  CD1       15.0410   17.3110   61.6030 C.ar  147  TRP147      0.0946
    127  CD2       14.7340   17.5650   59.4000 C.ar  147  TRP147      0.0152
    128  NE1       14.4470   16.1640   61.1320 N.ar  147  TRP147     -0.2442
    129  CE2       14.2470   16.2930   59.7820 C.ar  147  TRP147      0.0810
    130  CE3       14.6460   17.9460   58.0550 C.ar  147  TRP147      0.0012
    131  CZ2       13.6810   15.4000   58.8650 C.ar  147  TRP147      0.0191
    132  CZ3       14.0830   17.0590   57.1470 C.ar  147  TRP147      0.0001
    133  CH2       13.6080   15.8000   57.5570 C.ar  147  TRP147      0.0015
    134  N         20.1880   20.4330   64.8420 N.3   150  SER150     -0.1217
    135  CA        21.1370   19.3400   64.6260 C.3   150  SER150      0.1889
    136  C         21.9980   19.5060   63.3770 C.2   150  SER150      0.2288
    137  O         22.9590   18.7630   63.1750 O.2   150  SER150     -0.2866
    138  CB        20.3850   18.0160   64.5280 C.3   150  SER150      0.2089
    139  OG        19.5000   18.0350   63.4210 O.3   150  SER150     -0.2183
    140  N         21.0650   19.0550   60.1390 N.3   152  ALA152     -0.1245
    141  CA        20.8050   18.0060   59.1570 C.3   152  ALA152      0.1562
    142  C         21.2130   18.4370   57.7520 C.2   152  ALA152      0.2260
    143  O         21.7550   17.6450   56.9790 O.2   152  ALA152     -0.2867
    144  CB        19.3300   17.6380   59.1770 C.3   152  ALA152      0.0290
    145  N         24.8270   17.7470   56.3060 N.3   155  HIS155     -0.1226
    146  CA        25.0470   16.3550   55.9650 C.3   155  HIS155      0.1752
    147  C         24.4580   16.0070   54.6010 C.2   155  HIS155      0.2596
    148  O         25.1580   15.4640   53.7460 O.2   155  HIS155     -0.2718
    149  CB        24.4750   15.4640   57.0680 C.3   155  HIS155      0.0759
    150  CG        25.1750   15.6280   58.3830 C.ar  155  HIS155      0.0818
    151  ND1       26.4830   15.2370   58.5810 N.ar  155  HIS155     -0.2268
    152  CD2       24.7710   16.1910   59.5470 C.ar  155  HIS155      0.1154
    153  CE1       26.8540   15.5540   59.8100 C.ar  155  HIS155      0.1986
    154  NE2       25.8340   16.1350   60.4170 N.ar  155  HIS155     -0.2212
    155  N         23.1830   16.3350   54.3900 N.am  156  TYR156     -0.1976
    156  CA        22.5210   16.0640   53.1120 C.3   156  TYR156      0.1639
    157  C         23.2870   16.7240   51.9700 C.2   156  TYR156      0.2290
    158  O         23.4960   16.1290   50.9140 O.2   156  TYR156     -0.2864
    159  CB        21.0860   16.5900   53.1280 C.3   156  TYR156      0.0560
    160  CG        20.1240   15.7860   53.9730 C.ar  156  TYR156     -0.0198
    161  CD1       19.4920   16.3520   55.0840 C.ar  156  TYR156     -0.0009
    162  CD2       19.8230   14.4660   53.6510 C.ar  156  TYR156     -0.0009
    163  CE1       18.5840   15.6200   55.8500 C.ar  156  TYR156      0.0417
    164  CE2       18.9140   13.7210   54.4140 C.ar  156  TYR156      0.0417
    165  CZ        18.3020   14.3020   55.5060 C.ar  156  TYR156      0.1957
    166  OH        17.4190   13.5620   56.2580 O.3   156  TYR156     -0.2866
    167  N         26.2830   14.7920   50.9980 N.3   159  TYR159     -0.1241
    168  CA        25.8710   13.6840   50.1350 C.3   159  TYR159      0.1605
    169  C         25.4770   14.1620   48.7460 C.2   159  TYR159      0.2264
    170  O         26.1210   13.8240   47.7520 O.2   159  TYR159     -0.2867
    171  CB        24.6760   12.9430   50.7410 C.3   159  TYR159      0.0534
    172  CG        24.0500   11.9500   49.7790 C.ar  159  TYR159     -0.0201
    173  CD1       24.7350   10.7950   49.4020 C.ar  159  TYR159     -0.0009
    174  CD2       22.8040   12.1910   49.2000 C.ar  159  TYR159     -0.0009
    175  CE1       24.2000    9.9050   48.4680 C.ar  159  TYR159      0.0417
    176  CE2       22.2590   11.3030   48.2620 C.ar  159  TYR159      0.0417
    177  CZ        22.9690   10.1620   47.8980 C.ar  159  TYR159      0.1957
    178  OH        22.4790    9.2930   46.9460 O.3   159  TYR159     -0.2866
@<TRIPOS>BOND
     1   178   177    1
     2   170   169    2
     3   177   176   ar
     4   177   175   ar
     5   176   174   ar
     6   175   173   ar
     7   169   168    1
     8   174   172   ar
     9   173   172   ar
    10   172   171    1
    11   168   171    1
    12   168   167    1
    13   158   157    2
    14    73    74    1
    15    76    75    2
    16    75    74    1
    17    74    77    1
    18   157   156    1
    19    68    67    2
    20    84    85    1
    21    99    98    2
    22    67    66    1
    23   156   159    1
    24   156   155    1
    25   159   160    1
    26    98    97    1
    27    77    78    1
    28    79    78   ar
    29    79    81   ar
    30    78    80   ar
    31   162   160   ar
    32   162   164   ar
    33    81    83   ar
    34   148   147    2
    35    80    82   ar
    36    65    66    1
    37     9     7   am
    38   160   161   ar
    39     6     7    1
    40     6     5    1
    41    83    82   ar
    42    66    69    1
    43    96    97    1
    44    96    86   am
    45    85    86    1
    46    85    88    1
    47    97   100    1
    48   155   147   am
    49   164   165   ar
    50     7     8    2
    51    86    87    2
    52     5     2    1
    53   147   146    1
    54    88    89    1
    55   161   163   ar
    56    69    70    1
    57   165   163   ar
    58   165   166    1
    59    71    70    1
    60    70    72    1
    61   100   102    1
    62   100   101    1
    63   146   145    1
    64   146   149    1
    65   101   103    1
    66     2     1    1
    67     2     3    1
    68    89    91   ar
    69    89    90   ar
    70     3     4    2
    71    22    23   ar
    72    22    20   ar
    73    91    93   ar
    74   143   142    2
    75   149   150    1
    76    90    92   ar
    77   132   133   ar
    78   132   130   ar
    79    23    21   ar
    80    20    17   ar
    81   133   131   ar
    82   142   141    1
    83   130   127   ar
    84    21    19   ar
    85    17    19   ar
    86    17    15   ar
    87    93    94   ar
    88   150   151   ar
    89   150   152   ar
    90    92    94   ar
    91    19    18   ar
    92   151   153   ar
    93    52    50    1
    94    14    15    1
    95    14    11    1
    96    15    16   ar
    97   131   129   ar
    98    94    95    1
    99   141   144    1
   100   141   140    1
   101    18    16   ar
   102   127   129   ar
   103   127   125   ar
   104   152   154   ar
   105    12    11    1
   106    12    13    2
   107   129   128   ar
   108   153   154   ar
   109    50    51    1
   110    50    49    1
   111    11    10    1
   112    35    36    1
   113    35    32    1
   114   110   108    1
   115   125   124    1
   116   125   126   ar
   117   124   121    1
   118    49    46    1
   119   108   109    1
   120   108   105    1
   121   128   126   ar
   122    33    32    1
   123    33    34    2
   124    32    31    1
   125   123   122    2
   126   106   107    2
   127   106   105    1
   128    31    26   am
   129   122   121    1
   130   121   120    1
   131   105   104    1
   132    46    47    1
   133    46    45    1
   134    24    25    1
   135    47    48    2
   136   120   113   am
   137    45    39   am
   138    26    25    1
   139    26    27    2
   140    30    28    1
   141   137   136    2
   142    60    62   ar
   143    60    58   ar
   144   136   135    1
   145   139   138    1
   146    25    28    1
   147    62    63   ar
   148    57    58    1
   149    57    54    1
   150    28    29    1
   151   113   114    2
   152   113   112    1
   153    39    40    2
   154    39    38    1
   155    58    59   ar
   156   138   135    1
   157   111   112    1
   158   135   134    1
   159    37    38    1
   160    55    56    2
   161    55    54    1
   162    41    38    1
   163    41    42    1
   164    63    64    1
   165    63    61   ar
   166   112   115    1
   167   115   116    1
   168    54    53    1
   169    44    42   am
   170    42    43    2
   171    59    61   ar
   172   116   117    1
   173   117   118    1
   174   118   119    1
