@<TRIPOS>MOLECULE
tmp/2cijA00.pdb
 151 144 0 0 0
SMALL
GASTEIGER

@<TRIPOS>ATOM
      1  N         21.7610   50.4130   36.4490 N.3   153  PHE153     -0.1227
      2  CA        20.5900   49.5360   36.4870 C.3   153  PHE153      0.1736
      3  C         20.2900   49.0520   35.0740 C.2   153  PHE153      0.2595
      4  O         20.3020   49.8640   34.1210 O.2   153  PHE153     -0.2718
      5  CB        19.3770   50.3000   37.0420 C.3   153  PHE153      0.0547
      6  CG        18.0990   49.5190   37.0060 C.ar  153  PHE153     -0.0202
      7  CD1       17.9940   48.3030   37.6800 C.ar  153  PHE153     -0.0042
      8  CD2       16.9790   50.0130   36.3280 C.ar  153  PHE153     -0.0042
      9  CE1       16.7970   47.5470   37.6390 C.ar  153  PHE153     -0.0003
     10  CE2       15.7820   49.2780   36.3050 C.ar  153  PHE153     -0.0003
     11  CZ        15.7020   48.0390   36.9740 C.ar  153  PHE153     -0.0000
     12  N         20.0410   47.7480   34.9450 N.am  154  ARG154     -0.1980
     13  CA        19.8550   47.1410   33.6430 C.3   154  ARG154      0.1597
     14  C         18.6770   47.7170   32.8590 C.2   154  ARG154      0.2287
     15  O         18.7190   47.7810   31.6340 O.2   154  ARG154     -0.2864
     16  CB        19.7580   45.6180   33.7600 C.3   154  ARG154      0.0334
     17  CG        18.4850   45.0770   34.4240 C.3   154  ARG154      0.0492
     18  CD        18.5860   43.5530   34.6930 C.3   154  ARG154      0.2205
     19  NE        19.2910   43.1440   35.9200 N.pl3 154  ARG154     -0.0865
     20  CZ        18.8620   43.4180   37.1570 C.cat 154  ARG154      0.5346
     21  NH1       17.7600   44.1420   37.3050 N.pl3 154  ARG154      0.1354
     22  NH2       19.5410   43.0000   38.2410 N.pl3 154  ARG154      0.1354
     23  N         17.0310   39.4380   36.2210 N.3   200  GLY200     -0.1210
     24  CA        16.4420   40.6280   36.8270 C.3   200  GLY200      0.1956
     25  C         15.5270   41.3400   35.8530 C.2   200  GLY200      0.2611
     26  O         15.6300   41.1460   34.6410 O.2   200  GLY200     -0.2717
     27  N         14.6450   42.1910   36.3810 N.am  201  ASN201     -0.1974
     28  CA        13.6680   42.8440   35.5710 C.3   201  ASN201      0.1688
     29  C         14.3540   44.0020   34.8310 C.2   201  ASN201      0.2292
     30  O         15.3610   44.5520   35.2850 O.2   201  ASN201     -0.2864
     31  CB        12.4480   43.3090   36.4290 C.3   201  ASN201      0.1181
     32  CG        12.7270   44.6510   37.1870 C.2   201  ASN201      0.2629
     33  OD1       12.7780   45.6970   36.5800 O.2   201  ASN201     -0.2716
     34  ND2       13.0400   44.5710   38.4700 N.am  201  ASN201     -0.0877
     35  N         12.4310   46.8100   33.6090 N.3   203  LEU203     -0.1245
     36  CA        11.3800   47.8330   33.5630 C.3   203  LEU203      0.1561
     37  C         11.9530   49.1930   33.7520 C.2   203  LEU203      0.2260
     38  O         13.0040   49.3500   34.3780 O.2   203  LEU203     -0.2867
     39  CB        10.3350   47.6300   34.6890 C.3   203  LEU203      0.0270
     40  CG         9.4160   46.3880   34.5780 C.3   203  LEU203      0.0019
     41  CD1        8.5920   46.2500   35.8050 C.3   203  LEU203      0.0001
     42  CD2        8.4960   46.4520   33.3520 C.3   203  LEU203      0.0001
     43  N         10.0380   51.7390   35.5330 N.3   205  LEU205     -0.1245
     44  CA         8.8090   52.1650   36.2020 C.3   205  LEU205      0.1561
     45  C          8.8280   53.5910   36.7710 C.2   205  LEU205      0.2260
     46  O          7.7760   54.1870   36.9550 O.2   205  LEU205     -0.2867
     47  CB         8.4990   51.1970   37.3350 C.3   205  LEU205      0.0270
     48  CG         8.0010   49.8430   36.8870 C.3   205  LEU205      0.0019
     49  CD1        7.7810   48.9530   38.0790 C.3   205  LEU205      0.0001
     50  CD2        6.7380   50.0700   36.1240 C.3   205  LEU205      0.0001
     51  N         20.6710   37.6140   48.4800 N.3   329  ASP329     -0.1239
     52  CA        19.6030   38.4570   48.0610 C.3   329  ASP329      0.1674
     53  C         18.2820   37.7160   47.9390 C.2   329  ASP329      0.2266
     54  O         18.0720   37.0700   46.9450 O.2   329  ASP329     -0.2867
     55  CB        19.9590   39.0780   46.7020 C.3   329  ASP329      0.1410
     56  CG        18.9190   40.0510   46.2540 C.2   329  ASP329      0.3668
     57  OD1       18.0850   40.3690   47.1360 O.co2 329  ASP329     -0.2456
     58  OD2       18.8820   40.4740   45.0750 O.co2 329  ASP329     -0.2456
     59  N          9.5650   42.2550   45.0950 N.3   366  GLU366     -0.1231
     60  CA        10.5810   43.2610   44.9120 C.3   366  GLU366      0.1699
     61  C         11.3260   43.0670   43.6070 C.2   366  GLU366      0.2592
     62  O         11.6410   44.0730   42.9020 O.2   366  GLU366     -0.2718
     63  CB        11.5450   43.2500   46.0920 C.3   366  GLU366      0.0402
     64  CG        12.5600   44.4400   46.1550 C.3   366  GLU366      0.1161
     65  CD        13.8570   44.2600   45.3560 C.2   366  GLU366      0.3649
     66  OE1       14.1820   43.1560   44.9070 O.co2 366  GLU366     -0.2457
     67  OE2       14.5780   45.2500   45.1390 O.co2 366  GLU366     -0.2457
     68  N         11.6360   41.7940   43.2600 N.am  367  GLU367     -0.1979
     69  CA        12.5470   41.5110   42.1210 C.3   367  GLU367      0.1602
     70  C         11.9180   41.9520   40.8100 C.2   367  GLU367      0.2287
     71  O         12.5920   42.1370   39.7770 O.2   367  GLU367     -0.2864
     72  CB        12.9510   40.0260   42.0430 C.3   367  GLU367      0.0415
     73  CG        13.8480   39.4790   43.1810 C.3   367  GLU367      0.1163
     74  CD        15.1990   40.1640   43.2770 C.2   367  GLU367      0.3649
     75  OE1       15.4810   41.0690   42.4680 O.co2 367  GLU367     -0.2457
     76  OE2       16.0050   39.8140   44.1640 O.co2 367  GLU367     -0.2457
     77  N         10.1050   44.7500   40.4160 N.3   369  GLY369     -0.1210
     78  CA         9.9270   46.1880   40.3200 C.3   369  GLY369      0.1956
     79  C          9.3570   46.7810   41.6190 C.2   369  GLY369      0.2611
     80  O          8.5500   47.6810   41.5780 O.2   369  GLY369     -0.2717
     81  N          9.7350   46.2420   42.7640 N.am  370  LEU370     -0.1979
     82  CA         9.3290   46.7880   44.0450 C.3   370  LEU370      0.1596
     83  C          7.8230   46.8230   44.1460 C.2   370  LEU370      0.2287
     84  O          7.2630   47.7940   44.6810 O.2   370  LEU370     -0.2864
     85  CB         9.8560   48.2330   44.2060 C.3   370  LEU370      0.0297
     86  CG        11.2310   48.6250   43.6020 C.3   370  LEU370      0.0022
     87  CD1       11.5190   50.1450   43.7160 C.3   370  LEU370      0.0001
     88  CD2       12.3570   47.8320   44.2680 C.3   370  LEU370      0.0001
     89  N         17.0600   44.6370   52.7720 N.3   395  ASP395     -0.1239
     90  CA        17.4410   43.6380   51.8000 C.3   395  ASP395      0.1674
     91  C         18.7510   43.0100   52.3170 C.2   395  ASP395      0.2266
     92  O         19.0600   43.1300   53.5000 O.2   395  ASP395     -0.2867
     93  CB        17.6240   44.2190   50.3750 C.3   395  ASP395      0.1410
     94  CG        17.4110   43.1450   49.2970 C.2   395  ASP395      0.3668
     95  OD1       17.3140   41.9650   49.6900 O.co2 395  ASP395     -0.2456
     96  OD2       17.2820   43.4580   48.0960 O.co2 395  ASP395     -0.2456
     97  N         15.9230   51.3390   43.3490 N.3   460  GLY460     -0.1210
     98  CA        16.3840   49.9630   43.1350 C.3   460  GLY460      0.1956
     99  C         16.1770   49.0550   44.3350 C.2   460  GLY460      0.2611
    100  O         16.7030   47.9480   44.3730 O.2   460  GLY460     -0.2717
    101  N         15.4170   49.5040   45.3140 N.am  461  ASN461     -0.1974
    102  CA        15.0400   48.6770   46.4550 C.3   461  ASN461      0.1688
    103  C         13.7730   49.2560   47.1530 C.2   461  ASN461      0.2292
    104  O         13.3100   50.3290   46.7980 O.2   461  ASN461     -0.2864
    105  CB        16.2090   48.4340   47.4460 C.3   461  ASN461      0.1181
    106  CG        16.2460   46.9780   47.9560 C.2   461  ASN461      0.2629
    107  OD1       15.4100   46.5670   48.7840 O.2   461  ASN461     -0.2716
    108  ND2       17.1760   46.1770   47.4130 N.am  461  ASN461     -0.0877
    109  N         25.4670   37.5550   42.1130 N.3   489  TYR489     -0.1227
    110  CA        24.1740   38.2560   42.2250 C.3   489  TYR489      0.1736
    111  C         23.0930   37.7760   41.2650 C.2   489  TYR489      0.2595
    112  O         23.2660   37.8430   40.0530 O.2   489  TYR489     -0.2718
    113  CB        24.4710   39.7510   42.0790 C.3   489  TYR489      0.0548
    114  CG        23.3240   40.7200   41.9900 C.ar  489  TYR489     -0.0200
    115  CD1       22.5160   41.0050   43.0970 C.ar  489  TYR489     -0.0009
    116  CD2       23.1200   41.4550   40.7940 C.ar  489  TYR489     -0.0009
    117  CE1       21.4740   41.9600   42.9800 C.ar  489  TYR489      0.0417
    118  CE2       22.1320   42.3620   40.6710 C.ar  489  TYR489      0.0417
    119  CZ        21.3030   42.6160   41.7490 C.ar  489  TYR489      0.1957
    120  OH        20.3160   43.5460   41.5610 O.3   489  TYR489     -0.2866
    121  N         21.9790   37.2850   41.8040 N.am  490  HIS490     -0.1975
    122  CA        20.7960   36.9180   40.9710 C.3   490  HIS490      0.1656
    123  C         21.0650   35.6800   40.0870 C.2   490  HIS490      0.2291
    124  O         20.3610   35.4530   39.0980 O.2   490  HIS490     -0.2864
    125  CB        20.3280   38.0840   40.0370 C.3   490  HIS490      0.0771
    126  CG        19.5820   39.1910   40.7300 C.ar  490  HIS490      0.0820
    127  ND1       18.9800   40.2270   40.0350 N.ar  490  HIS490     -0.2267
    128  CD2       19.3370   39.4250   42.0410 C.ar  490  HIS490      0.1154
    129  CE1       18.3850   41.0360   40.8870 C.ar  490  HIS490      0.1986
    130  NE2       18.5830   40.5690   42.1080 N.ar  490  HIS490     -0.2212
    131  N         19.0120   54.2030   37.8860 N.3   636  LYS636     -0.1231
    132  CA        18.0490   54.0330   38.9640 C.3   636  LYS636      0.1693
    133  C         18.7250   53.7270   40.2940 C.2   636  LYS636      0.2592
    134  O         18.2110   54.1230   41.3480 O.2   636  LYS636     -0.2718
    135  CB        17.0530   52.9330   38.5890 C.3   636  LYS636      0.0285
    136  CG        15.9820   52.7170   39.6070 C.3   636  LYS636      0.0035
    137  CD        14.9050   51.6930   39.1520 C.3   636  LYS636      0.0206
    138  CE        13.5320   51.9970   39.7780 C.3   636  LYS636      0.1093
    139  NZ        12.6470   50.7990   39.6690 N.3   636  LYS636     -0.1314
    140  N         19.8690   53.0330   40.2730 N.am  637  TYR637     -0.1976
    141  CA        20.5360   52.7030   41.5500 C.3   637  TYR637      0.1639
    142  C         21.1360   53.9010   42.2710 C.2   637  TYR637      0.2290
    143  O         21.2960   53.8470   43.4600 O.2   637  TYR637     -0.2864
    144  CB        21.6390   51.6640   41.3960 C.3   637  TYR637      0.0560
    145  CG        21.1990   50.2470   41.0260 C.ar  637  TYR637     -0.0198
    146  CD1       19.9890   49.7060   41.4890 C.ar  637  TYR637     -0.0009
    147  CD2       22.0390   49.4330   40.2310 C.ar  637  TYR637     -0.0009
    148  CE1       19.6200   48.4200   41.1620 C.ar  637  TYR637      0.0417
    149  CE2       21.6930   48.1180   39.9100 C.ar  637  TYR637      0.0417
    150  CZ        20.4920   47.6160   40.3610 C.ar  637  TYR637      0.1957
    151  OH        20.1590   46.3360   39.9900 O.3   637  TYR637     -0.2866
@<TRIPOS>BOND
     1    15    14    2
     2    14    13    1
     3    42    40    1
     4    36    35    1
     5    36    37    1
     6    36    39    1
     7    13    16    1
     8    13    12    1
     9    37    38    2
    10    16    17    1
    11     4     3    2
    12    17    18    1
    13    40    39    1
    14    40    41    1
    15    26    25    2
    16    18    19    1
    17    29    30    2
    18    29    28    1
    19    12     3   am
    20     3     2    1
    21    43    44    1
    22    28    27    1
    23    28    31    1
    24    25    27   am
    25    25    24    1
    26    19    20    2
    27    50    48    1
    28    44    45    1
    29    44    47    1
    30    23    24    1
    31    10     8   ar
    32    10    11   ar
    33     8     6   ar
    34    31    32    1
    35     1     2    1
    36     2     5    1
    37    33    32    2
    38    45    46    2
    39    48    47    1
    40    48    49    1
    41    11     9   ar
    42     6     5    1
    43     6     7   ar
    44    20    21    1
    45    20    22    1
    46    32    34   am
    47     9     7   ar
    48   131   132    1
    49   135   132    1
    50   135   136    1
    51   132   133    1
    52   124   123    2
    53   137   136    1
    54   137   138    1
    55   139   138    1
    56    71    70    2
    57   149   147   ar
    58   149   150   ar
    59   151   150    1
    60   127   126   ar
    61   127   129   ar
    62   125   126    1
    63   125   122    1
    64   112   111    2
    65   123   122    1
    66   147   145   ar
    67   140   133   am
    68   140   141    1
    69   133   134    2
    70    78    77    1
    71    78    79    1
    72   150   148   ar
    73   118   116   ar
    74   118   119   ar
    75   126   128   ar
    76   116   114   ar
    77    70    69    1
    78   129   130   ar
    79   122   121    1
    80   145   144    1
    81   145   146   ar
    82   148   146   ar
    83   111   121   am
    84   111   110    1
    85   144   141    1
    86   141   142    1
    87   120   119    1
    88    80    79    2
    89    79    81   am
    90   119   117   ar
    91   114   113    1
    92   114   115   ar
    93   128   130   ar
    94    72    69    1
    95    72    73    1
    96   113   110    1
    97   109   110    1
    98    69    68    1
    99   142   143    2
   100    75    74   ar
   101    81    82    1
   102    62    61    2
   103   117   115   ar
   104    98    97    1
   105    98    99    1
   106    73    74    1
   107    68    61   am
   108    74    76   ar
   109    86    87    1
   110    86    85    1
   111    86    88    1
   112    61    60    1
   113    82    83    1
   114    82    85    1
   115    83    84    2
   116    99   100    2
   117    99   101   am
   118    66    65   ar
   119    60    59    1
   120    60    63    1
   121    58    56   ar
   122    67    65   ar
   123   101   102    1
   124    65    64    1
   125    63    64    1
   126    56    55    1
   127    56    57   ar
   128   102   103    1
   129   102   105    1
   130    55    52    1
   131   104   103    2
   132    54    53    2
   133   108   106   am
   134   105   106    1
   135    53    52    1
   136   106   107    2
   137    52    51    1
   138    96    94   ar
   139    94    95   ar
   140    94    93    1
   141    93    90    1
   142    90    91    1
   143    90    89    1
   144    91    92    2
