@<TRIPOS>MOLECULE
tmp/2cipA01.pdb
 116 114 0 0 0
SMALL
GASTEIGER

@<TRIPOS>ATOM
      1  N         20.8350   38.0660    7.5590 N.3   103  GLU103     -0.1245
      2  CA        19.6200   38.7390    8.0480 C.3   103  GLU103      0.1567
      3  C         19.6960   40.2600    7.9720 C.2   103  GLU103      0.2260
      4  O         19.1910   40.9620    8.8650 O.2   103  GLU103     -0.2867
      5  CB        19.2420   38.2740    9.4540 C.3   103  GLU103      0.0388
      6  CG        18.7640   36.7990    9.4610 C.3   103  GLU103      0.1160
      7  CD        18.7120   36.1830   10.8510 C.2   103  GLU103      0.3649
      8  OE1       18.7990   36.8590   11.8760 O.co2 103  GLU103     -0.2457
      9  OE2       18.5800   34.9260   10.9470 O.co2 103  GLU103     -0.2457
     10  N         16.4370   44.2410   11.6490 N.3   107  ASP107     -0.1225
     11  CA        16.9250   45.4510   12.3520 C.3   107  ASP107      0.1805
     12  C         17.7260   45.1480   13.6210 C.2   107  ASP107      0.2598
     13  O         18.0230   46.0400   14.4280 O.2   107  ASP107     -0.2718
     14  CB        15.7700   46.4280   12.6800 C.3   107  ASP107      0.1424
     15  CG        14.8340   45.8970   13.7270 C.2   107  ASP107      0.3668
     16  OD1       14.9570   44.7340   14.1900 O.co2 107  ASP107     -0.2456
     17  OD2       13.9200   46.6680   14.1320 O.co2 107  ASP107     -0.2456
     18  N         18.1020   43.8860   13.8060 N.am  108  TRP108     -0.1962
     19  CA        18.7100   43.4410   15.0850 C.3   108  TRP108      0.1771
     20  C         20.2080   43.3280   15.0520 C.2   108  TRP108      0.2619
     21  O         20.8470   43.2220   16.1040 O.2   108  TRP108     -0.2715
     22  CB        18.1310   42.1130   15.6100 C.3   108  TRP108      0.0590
     23  CG        17.9400   41.0570   14.5560 C.ar  108  TRP108      0.0006
     24  CD1       18.8160   40.0660   14.1830 C.ar  108  TRP108      0.0946
     25  CD2       16.7530   40.8850   13.7790 C.ar  108  TRP108      0.0152
     26  NE1       18.2430   39.2960   13.1640 N.ar  108  TRP108     -0.2442
     27  CE2       16.9770   39.7690   12.9260 C.ar  108  TRP108      0.0810
     28  CE3       15.5160   41.5510   13.7250 C.ar  108  TRP108      0.0012
     29  CZ2       16.0230   39.3280   11.9990 C.ar  108  TRP108      0.0191
     30  CZ3       14.5600   41.0980   12.8100 C.ar  108  TRP108      0.0001
     31  CH2       14.8140   39.9780   11.9680 C.ar  108  TRP108      0.0015
     32  N         20.7870   43.3500   13.8620 N.am  109  TYR109     -0.1974
     33  CA        22.2490   43.2680   13.7380 C.3   109  TYR109      0.1639
     34  C         22.8540   44.6010   13.3260 C.2   109  TYR109      0.2290
     35  O         22.2710   45.3290   12.5350 O.2   109  TYR109     -0.2864
     36  CB        22.6230   42.2380   12.6770 C.3   109  TYR109      0.0560
     37  CG        22.3510   40.8020   13.0660 C.ar  109  TYR109     -0.0198
     38  CD1       22.6930   40.3240   14.3560 C.ar  109  TYR109     -0.0009
     39  CD2       21.7980   39.9000   12.1520 C.ar  109  TYR109     -0.0009
     40  CE1       22.5020   39.0030   14.7070 C.ar  109  TYR109      0.0417
     41  CE2       21.5870   38.5660   12.4780 C.ar  109  TYR109      0.0417
     42  CZ        21.9200   38.1490   13.7550 C.ar  109  TYR109      0.1957
     43  OH        21.7280   36.8030   14.0570 O.3   109  TYR109     -0.2866
     44  N         16.1110   37.3870    6.0200 N.3   151  ASN151     -0.1225
     45  CA        15.1100   37.0240    6.9760 C.3   151  ASN151      0.1785
     46  C         13.7630   36.8560    6.2570 C.2   151  ASN151      0.2597
     47  O         13.4660   37.5580    5.2680 O.2   151  ASN151     -0.2718
     48  CB        14.9910   38.1060    8.0480 C.3   151  ASN151      0.1169
     49  CG        14.1550   37.6440    9.2140 C.2   151  ASN151      0.2627
     50  OD1       13.0460   38.2250    9.5380 O.2   151  ASN151     -0.2716
     51  ND2       14.6190   36.5940    9.8440 N.am  151  ASN151     -0.0877
     52  N         12.9180   35.9690    6.7970 N.am  152  CYS152     -0.1956
     53  CA        11.6080   35.7150    6.1710 C.3   152  CYS152      0.1843
     54  C         10.7480   36.9930    6.0640 C.2   152  CYS152      0.2625
     55  O          9.9610   37.1160    5.1350 O.2   152  CYS152     -0.2714
     56  CB        10.8420   34.6510    6.9650 C.3   152  CYS152      0.0997
     57  SG        10.6050   35.0980    8.7070 S.3   152  CYS152     -0.0797
     58  N         10.9280   37.9160    7.0120 N.am  153  ASP153     -0.1971
     59  CA        10.2010   39.1870    7.0500 C.3   153  ASP153      0.1709
     60  C         11.1880   40.3110    7.0190 C.2   153  ASP153      0.2293
     61  O         12.2410   40.2360    7.6790 O.2   153  ASP153     -0.2864
     62  CB         9.3970   39.3270    8.3650 C.3   153  ASP153      0.1436
     63  CG         8.3090   38.2860    8.5150 C.2   153  ASP153      0.3671
     64  OD1        7.7840   37.7990    7.4950 O.co2 153  ASP153     -0.2456
     65  OD2        7.9870   37.9690    9.6870 O.co2 153  ASP153     -0.2456
     66  N         12.1680   43.6610    8.5080 N.3   155  VAL155     -0.1245
     67  CA        11.8960   44.2820    9.8180 C.3   155  VAL155      0.1561
     68  C         12.7880   45.4840    9.9350 C.2   155  VAL155      0.2260
     69  O         14.0070   45.3720    9.8160 O.2   155  VAL155     -0.2867
     70  CB        12.1840   43.2970   10.9890 C.3   155  VAL155      0.0252
     71  CG1       11.7980   43.9300   12.3260 C.3   155  VAL155      0.0019
     72  CG2       11.4580   41.9720   10.7690 C.3   155  VAL155      0.0019
     73  N         11.1700   31.7210   11.7740 N.3   179  TYR179     -0.1241
     74  CA        10.6380   30.8860   12.8470 C.3   179  TYR179      0.1605
     75  C          9.1270   30.9690   12.9380 C.2   179  TYR179      0.2264
     76  O          8.5450   32.0320   12.6630 O.2   179  TYR179     -0.2867
     77  CB        11.1980   31.3790   14.2040 C.3   179  TYR179      0.0534
     78  CG        12.6930   31.2700   14.2680 C.ar  179  TYR179     -0.0201
     79  CD1       13.3040   30.1670   14.8320 C.ar  179  TYR179     -0.0009
     80  CD2       13.5100   32.2570   13.7170 C.ar  179  TYR179     -0.0009
     81  CE1       14.6950   30.0210   14.8490 C.ar  179  TYR179      0.0417
     82  CE2       14.9100   32.1320   13.7500 C.ar  179  TYR179      0.0417
     83  CZ        15.4830   31.0050   14.3180 C.ar  179  TYR179      0.1957
     84  OH        16.8650   30.9160   14.3250 O.3   179  TYR179     -0.2866
     85  N          7.0260   31.4840   15.7950 N.3   181  TRP181     -0.1241
     86  CA         7.2000   31.9380   17.1810 C.3   181  TRP181      0.1605
     87  C          6.0310   31.4870   18.0690 C.2   181  TRP181      0.2264
     88  O          6.0940   31.6480   19.2960 O.2   181  TRP181     -0.2867
     89  CB         7.2980   33.4760   17.2050 C.3   181  TRP181      0.0550
     90  CG         8.5280   33.9960   16.5250 C.ar  181  TRP181      0.0003
     91  CD1        8.6720   34.2570   15.1960 C.ar  181  TRP181      0.0946
     92  CD2        9.7840   34.2870   17.1300 C.ar  181  TRP181      0.0152
     93  NE1        9.9500   34.7130   14.9470 N.ar  181  TRP181     -0.2442
     94  CE2       10.6460   34.7390   16.1150 C.ar  181  TRP181      0.0810
     95  CE3       10.2590   34.2310   18.4380 C.ar  181  TRP181      0.0012
     96  CZ2       11.9700   35.1410   16.3810 C.ar  181  TRP181      0.0191
     97  CZ3       11.5780   34.6260   18.6990 C.ar  181  TRP181      0.0001
     98  CH2       12.4060   35.0500   17.6600 C.ar  181  TRP181      0.0015
     99  N         18.1610   28.7830    8.7750 N.3   213  GLN213     -0.1245
    100  CA        17.7630   28.7020   10.2060 C.3   213  GLN213      0.1566
    101  C         16.2540   28.6110   10.1840 C.2   213  GLN213      0.2260
    102  O         15.5880   29.5060    9.6420 O.2   213  GLN213     -0.2867
    103  CB        18.1190   29.9610   11.0170 C.3   213  GLN213      0.0367
    104  CG        19.5850   30.3010   11.0660 C.3   213  GLN213      0.0905
    105  CD        19.9000   31.6340   11.7880 C.2   213  GLN213      0.2608
    106  OE1       20.8970   32.2780   11.4840 O.2   213  GLN213     -0.2717
    107  NE2       19.0660   32.0430   12.7570 N.am  213  GLN213     -0.0878
    108  N         15.3190   31.5580   22.9470 N.3   252  GLU252     -0.1245
    109  CA        14.2120   32.4930   23.1890 C.3   252  GLU252      0.1567
    110  C         13.0020   31.6920   23.6230 C.2   252  GLU252      0.2260
    111  O         12.2240   32.1200   24.4950 O.2   252  GLU252     -0.2867
    112  CB        13.9010   33.3510   21.9550 C.3   252  GLU252      0.0388
    113  CG        15.0750   34.2430   21.5050 C.3   252  GLU252      0.1160
    114  CD        16.1050   33.5470   20.6010 C.2   252  GLU252      0.3649
    115  OE1       16.0210   32.3300   20.3510 O.co2 252  GLU252     -0.2457
    116  OE2       17.0640   34.2160   20.1440 O.co2 252  GLU252     -0.2457
@<TRIPOS>BOND
     1    55    54    2
     2    47    46    2
     3    44    45    1
     4    54    53    1
     5    54    58   am
     6    53    52    1
     7    53    56    1
     8    46    52   am
     9    46    45    1
    10    56    57    1
    11    45    48    1
    12    58    59    1
    13    60    59    1
    14    60    61    2
    15    59    62    1
    16    64    63   ar
    17     1     2    1
    18     3     2    1
    19     3     4    2
    20     2     5    1
    21    48    49    1
    22    62    63    1
    23    66    67    1
    24    63    65   ar
    25    99   100    1
    26    49    50    2
    27    49    51   am
    28     5     6    1
    29     6     7    1
    30   102   101    2
    31    69    68    2
    32    67    68    1
    33    67    70    1
    34   101   100    1
    35   100   103    1
    36    72    70    1
    37     7     9   ar
    38     7     8   ar
    39    70    71    1
    40   103   104    1
    41   104   105    1
    42   106   105    2
    43    10    11    1
    44    73    74    1
    45   105   107   am
    46    31    29   ar
    47    31    30   ar
    48    29    27   ar
    49    39    41   ar
    50    39    37   ar
    51    11    14    1
    52    11    12    1
    53    41    42   ar
    54    35    34    2
    55    76    75    2
    56    36    37    1
    57    36    33    1
    58    14    15    1
    59    30    28   ar
    60    74    75    1
    61    74    77    1
    62    27    26   ar
    63    27    25   ar
    64    37    38   ar
    65    26    24   ar
    66    34    33    1
    67    12    18   am
    68    12    13    2
    69    80    82   ar
    70    80    78   ar
    71    28    25   ar
    72    15    17   ar
    73    15    16   ar
    74    33    32    1
    75    82    83   ar
    76    42    43    1
    77    42    40   ar
    78    25    23   ar
    79    18    19    1
    80    32    20   am
    81    24    23   ar
    82    77    78    1
    83    78    79   ar
    84    83    84    1
    85    83    81   ar
    86    38    40   ar
    87    23    22    1
    88    79    81   ar
    89    93    91   ar
    90    93    94   ar
    91    20    19    1
    92    20    21    2
    93    19    22    1
    94    91    90   ar
    95    85    86    1
    96    94    96   ar
    97    94    92   ar
    98    96    98   ar
    99    90    92   ar
   100    90    89    1
   101    92    95   ar
   102    86    89    1
   103    86    87    1
   104    98    97   ar
   105    87    88    2
   106    95    97   ar
   107   116   114   ar
   108   115   114   ar
   109   114   113    1
   110   113   112    1
   111   112   109    1
   112   108   109    1
   113   109   110    1
   114   110   111    2
