@<TRIPOS>MOLECULE
tmp/2cipA00.pdb
 197 197 0 0 0
SMALL
GASTEIGER

@<TRIPOS>ATOM
      1  N         22.1470   23.7300   13.1490 N.3     8  TRP8       -0.1241
      2  CA        22.9220   24.2990   14.2770 C.3     8  TRP8        0.1605
      3  C         22.4810   23.4460   15.4800 C.2     8  TRP8        0.2264
      4  O         21.2660   23.3560   15.7290 O.2     8  TRP8       -0.2867
      5  CB        22.5660   25.7590   14.4900 C.3     8  TRP8        0.0550
      6  CG        22.8350   26.3270   15.8640 C.ar    8  TRP8        0.0003
      7  CD1       21.8820   26.6780   16.7550 C.ar    8  TRP8        0.0946
      8  CD2       24.1150   26.6310   16.4580 C.ar    8  TRP8        0.0152
      9  NE1       22.4830   27.2020   17.9000 N.ar    8  TRP8       -0.2442
     10  CE2       23.8510   27.1550   17.7470 C.ar    8  TRP8        0.0810
     11  CE3       25.4540   26.4960   16.0340 C.ar    8  TRP8        0.0012
     12  CZ2       24.8850   27.5480   18.6360 C.ar    8  TRP8        0.0191
     13  CZ3       26.4880   26.9220   16.9280 C.ar    8  TRP8        0.0001
     14  CH2       26.1750   27.4450   18.1980 C.ar    8  TRP8        0.0015
     15  N         28.7330   24.7890   19.8080 N.3    12  GLN12      -0.1245
     16  CA        29.6810   24.6460   18.7280 C.3    12  GLN12       0.1566
     17  C         29.8710   23.1680   18.3880 C.2    12  GLN12       0.2260
     18  O         29.8310   22.3120   19.2830 O.2    12  GLN12      -0.2867
     19  CB        30.9770   25.3710   19.1070 C.3    12  GLN12       0.0367
     20  CG        30.7770   26.9400   19.2030 C.3    12  GLN12       0.0905
     21  CD        30.5020   27.6230   17.8900 C.2    12  GLN12       0.2608
     22  OE1       30.7560   27.0720   16.8120 O.2    12  GLN12      -0.2717
     23  NE2       29.9960   28.8620   17.9590 N.am   12  GLN12      -0.0878
     24  N         28.1390   29.4310   14.1430 N.3    35  PHE35      -0.1241
     25  CA        28.1670   30.8950   14.1290 C.3    35  PHE35       0.1605
     26  C         29.5020   31.3380   14.6970 C.2    35  PHE35       0.2264
     27  O         29.9160   30.8370   15.7700 O.2    35  PHE35      -0.2867
     28  CB        27.0580   31.4830   15.0070 C.3    35  PHE35       0.0534
     29  CG        25.6790   31.1810   14.5200 C.ar   35  PHE35      -0.0203
     30  CD1       24.9820   32.1170   13.7460 C.ar   35  PHE35      -0.0042
     31  CD2       25.0550   29.9580   14.8230 C.ar   35  PHE35      -0.0042
     32  CE1       23.6980   31.8650   13.2840 C.ar   35  PHE35      -0.0003
     33  CE2       23.7610   29.6800   14.3920 C.ar   35  PHE35      -0.0003
     34  CZ        23.0810   30.6540   13.6100 C.ar   35  PHE35      -0.0000
     35  N         29.5640   36.6310   11.5510 N.3    64  GLU64      -0.1245
     36  CA        28.8130   37.7880   12.0610 C.3    64  GLU64       0.1567
     37  C         29.7360   38.9530   12.4260 C.2    64  GLU64       0.2260
     38  O         30.4710   38.8490   13.4060 O.2    64  GLU64      -0.2867
     39  CB        28.0980   37.3900   13.3440 C.3    64  GLU64       0.0388
     40  CG        27.0470   36.2920   13.1470 C.3    64  GLU64       0.1160
     41  CD        26.2630   36.0240   14.3970 C.2    64  GLU64       0.3649
     42  OE1       26.8480   35.9690   15.5180 O.co2  64  GLU64      -0.2457
     43  OE2       25.0440   35.8370   14.2670 O.co2  64  GLU64      -0.2457
     44  N         30.0250   41.5720   14.2770 N.3    66  TRP66      -0.1241
     45  CA        29.7170   42.4680   15.3840 C.3    66  TRP66       0.1605
     46  C         30.7650   43.5590   15.4730 C.2    66  TRP66       0.2264
     47  O         30.4920   44.6870   15.9550 O.2    66  TRP66      -0.2867
     48  CB        29.6470   41.6940   16.6900 C.3    66  TRP66       0.0550
     49  CG        28.5910   40.6290   16.6800 C.ar   66  TRP66       0.0003
     50  CD1       28.7770   39.2980   16.4470 C.ar   66  TRP66       0.0946
     51  CD2       27.1900   40.8020   16.9580 C.ar   66  TRP66       0.0152
     52  NE1       27.5730   38.6260   16.5410 N.ar   66  TRP66      -0.2442
     53  CE2       26.5860   39.5190   16.8720 C.ar   66  TRP66       0.0810
     54  CE3       26.3920   41.9110   17.2690 C.ar   66  TRP66       0.0012
     55  CZ2       25.2130   39.3220   17.0830 C.ar   66  TRP66       0.0191
     56  CZ3       25.0150   41.7170   17.5010 C.ar   66  TRP66       0.0001
     57  CH2       24.4430   40.4190   17.4030 C.ar   66  TRP66       0.0015
     58  N         24.4930   38.1510    7.5840 N.3   102  HIS102     -0.1226
     59  CA        23.1850   37.5730    7.3530 C.3   102  HIS102      0.1752
     60  C         22.0550   38.4180    7.9500 C.2   102  HIS102      0.2595
     61  O         22.2560   39.3500    8.7060 O.2   102  HIS102     -0.2718
     62  CB        23.1400   36.1030    7.8460 C.3   102  HIS102      0.0759
     63  CG        22.9620   35.9300    9.3340 C.ar  102  HIS102      0.0818
     64  ND1       23.8540   36.4080   10.2840 N.ar  102  HIS102     -0.2268
     65  CD2       21.9900   35.2790   10.0220 C.ar  102  HIS102      0.1154
     66  CE1       23.4410   36.0310   11.4870 C.ar  102  HIS102      0.1986
     67  NE2       22.3040   35.3610   11.3530 N.ar  102  HIS102     -0.2212
     68  N         20.8350   38.0660    7.5590 N.am  103  GLU103     -0.1979
     69  CA        19.6200   38.7390    8.0480 C.3   103  GLU103      0.1602
     70  C         19.6960   40.2600    7.9720 C.2   103  GLU103      0.2287
     71  O         19.1910   40.9620    8.8650 O.2   103  GLU103     -0.2864
     72  CB        19.2420   38.2740    9.4540 C.3   103  GLU103      0.0415
     73  CG        18.7640   36.7990    9.4610 C.3   103  GLU103      0.1163
     74  CD        18.7120   36.1830   10.8510 C.2   103  GLU103      0.3649
     75  OE1       18.7990   36.8590   11.8760 O.co2 103  GLU103     -0.2457
     76  OE2       18.5800   34.9260   10.9470 O.co2 103  GLU103     -0.2457
     77  N         18.1020   43.8860   13.8060 N.3   108  TRP108     -0.1227
     78  CA        18.7100   43.4410   15.0850 C.3   108  TRP108      0.1737
     79  C         20.2080   43.3280   15.0520 C.2   108  TRP108      0.2595
     80  O         20.8470   43.2220   16.1040 O.2   108  TRP108     -0.2718
     81  CB        18.1310   42.1130   15.6100 C.3   108  TRP108      0.0564
     82  CG        17.9400   41.0570   14.5560 C.ar  108  TRP108      0.0003
     83  CD1       18.8160   40.0660   14.1830 C.ar  108  TRP108      0.0946
     84  CD2       16.7530   40.8850   13.7790 C.ar  108  TRP108      0.0152
     85  NE1       18.2430   39.2960   13.1640 N.ar  108  TRP108     -0.2442
     86  CE2       16.9770   39.7690   12.9260 C.ar  108  TRP108      0.0810
     87  CE3       15.5160   41.5510   13.7250 C.ar  108  TRP108      0.0012
     88  CZ2       16.0230   39.3280   11.9990 C.ar  108  TRP108      0.0191
     89  CZ3       14.5600   41.0980   12.8100 C.ar  108  TRP108      0.0001
     90  CH2       14.8140   39.9780   11.9680 C.ar  108  TRP108      0.0015
     91  N         20.7870   43.3500   13.8620 N.am  109  TYR109     -0.1976
     92  CA        22.2490   43.2680   13.7380 C.3   109  TYR109      0.1639
     93  C         22.8540   44.6010   13.3260 C.2   109  TYR109      0.2290
     94  O         22.2710   45.3290   12.5350 O.2   109  TYR109     -0.2864
     95  CB        22.6230   42.2380   12.6770 C.3   109  TYR109      0.0560
     96  CG        22.3510   40.8020   13.0660 C.ar  109  TYR109     -0.0198
     97  CD1       22.6930   40.3240   14.3560 C.ar  109  TYR109     -0.0009
     98  CD2       21.7980   39.9000   12.1520 C.ar  109  TYR109     -0.0009
     99  CE1       22.5020   39.0030   14.7070 C.ar  109  TYR109      0.0417
    100  CE2       21.5870   38.5660   12.4780 C.ar  109  TYR109      0.0417
    101  CZ        21.9200   38.1490   13.7550 C.ar  109  TYR109      0.1957
    102  OH        21.7280   36.8030   14.0570 O.3   109  TYR109     -0.2866
    103  N         16.1110   37.3870    6.0200 N.3   151  ASN151     -0.1240
    104  CA        15.1100   37.0240    6.9760 C.3   151  ASN151      0.1653
    105  C         13.7630   36.8560    6.2570 C.2   151  ASN151      0.2266
    106  O         13.4660   37.5580    5.2680 O.2   151  ASN151     -0.2867
    107  CB        14.9910   38.1060    8.0480 C.3   151  ASN151      0.1155
    108  CG        14.1550   37.6440    9.2140 C.2   151  ASN151      0.2627
    109  OD1       13.0460   38.2250    9.5380 O.2   151  ASN151     -0.2716
    110  ND2       14.6190   36.5940    9.8440 N.am  151  ASN151     -0.0877
    111  N         11.1700   31.7210   11.7740 N.3   179  TYR179     -0.1241
    112  CA        10.6380   30.8860   12.8470 C.3   179  TYR179      0.1605
    113  C          9.1270   30.9690   12.9380 C.2   179  TYR179      0.2264
    114  O          8.5450   32.0320   12.6630 O.2   179  TYR179     -0.2867
    115  CB        11.1980   31.3790   14.2040 C.3   179  TYR179      0.0534
    116  CG        12.6930   31.2700   14.2680 C.ar  179  TYR179     -0.0201
    117  CD1       13.3040   30.1670   14.8320 C.ar  179  TYR179     -0.0009
    118  CD2       13.5100   32.2570   13.7170 C.ar  179  TYR179     -0.0009
    119  CE1       14.6950   30.0210   14.8490 C.ar  179  TYR179      0.0417
    120  CE2       14.9100   32.1320   13.7500 C.ar  179  TYR179      0.0417
    121  CZ        15.4830   31.0050   14.3180 C.ar  179  TYR179      0.1957
    122  OH        16.8650   30.9160   14.3250 O.3   179  TYR179     -0.2866
    123  N          7.0260   31.4840   15.7950 N.3   181  TRP181     -0.1241
    124  CA         7.2000   31.9380   17.1810 C.3   181  TRP181      0.1605
    125  C          6.0310   31.4870   18.0690 C.2   181  TRP181      0.2264
    126  O          6.0940   31.6480   19.2960 O.2   181  TRP181     -0.2867
    127  CB         7.2980   33.4760   17.2050 C.3   181  TRP181      0.0550
    128  CG         8.5280   33.9960   16.5250 C.ar  181  TRP181      0.0003
    129  CD1        8.6720   34.2570   15.1960 C.ar  181  TRP181      0.0946
    130  CD2        9.7840   34.2870   17.1300 C.ar  181  TRP181      0.0152
    131  NE1        9.9500   34.7130   14.9470 N.ar  181  TRP181     -0.2442
    132  CE2       10.6460   34.7390   16.1150 C.ar  181  TRP181      0.0810
    133  CE3       10.2590   34.2310   18.4380 C.ar  181  TRP181      0.0012
    134  CZ2       11.9700   35.1410   16.3810 C.ar  181  TRP181      0.0191
    135  CZ3       11.5780   34.6260   18.6990 C.ar  181  TRP181      0.0001
    136  CH2       12.4060   35.0500   17.6600 C.ar  181  TRP181      0.0015
    137  N         18.1610   28.7830    8.7750 N.3   213  GLN213     -0.1245
    138  CA        17.7630   28.7020   10.2060 C.3   213  GLN213      0.1566
    139  C         16.2540   28.6110   10.1840 C.2   213  GLN213      0.2260
    140  O         15.5880   29.5060    9.6420 O.2   213  GLN213     -0.2867
    141  CB        18.1190   29.9610   11.0170 C.3   213  GLN213      0.0367
    142  CG        19.5850   30.3010   11.0660 C.3   213  GLN213      0.0905
    143  CD        19.9000   31.6340   11.7880 C.2   213  GLN213      0.2608
    144  OE1       20.8970   32.2780   11.4840 O.2   213  GLN213     -0.2717
    145  NE2       19.0660   32.0430   12.7570 N.am  213  GLN213     -0.0878
    146  N         17.3420   25.0220   13.5740 N.3   247  PHE247     -0.1241
    147  CA        18.0120   25.7940   14.6270 C.3   247  PHE247      0.1605
    148  C         17.6960   25.1210   15.9600 C.2   247  PHE247      0.2264
    149  O         16.6650   25.4200   16.5760 O.2   247  PHE247     -0.2867
    150  CB        17.4600   27.2320   14.5770 C.3   247  PHE247      0.0534
    151  CG        18.1890   28.2170   15.4500 C.ar  247  PHE247     -0.0203
    152  CD1       19.3380   28.8560   15.0280 C.ar  247  PHE247     -0.0042
    153  CD2       17.6640   28.5440   16.6960 C.ar  247  PHE247     -0.0042
    154  CE1       19.9610   29.8080   15.8350 C.ar  247  PHE247     -0.0003
    155  CE2       18.2910   29.5150   17.5020 C.ar  247  PHE247     -0.0003
    156  CZ        19.4430   30.1260   17.0730 C.ar  247  PHE247     -0.0000
    157  N         18.1380   24.8360   19.4830 N.3   249  GLU249     -0.1245
    158  CA        18.6560   25.4590   20.6780 C.3   249  GLU249      0.1567
    159  C         17.4680   25.8520   21.5340 C.2   249  GLU249      0.2260
    160  O         16.4490   26.3000   21.0650 O.2   249  GLU249     -0.2867
    161  CB        19.5110   26.6930   20.3220 C.3   249  GLU249      0.0388
    162  CG        20.3710   27.1280   21.5280 C.3   249  GLU249      0.1160
    163  CD        21.1910   28.3750   21.2780 C.2   249  GLU249      0.3649
    164  OE1       21.5320   28.6550   20.1190 O.co2 249  GLU249     -0.2457
    165  OE2       21.5130   29.1000   22.2580 O.co2 249  GLU249     -0.2457
    166  N         16.4910   28.4610   23.5580 N.3   251  LYS251     -0.1231
    167  CA        16.9630   29.8400   23.6160 C.3   251  LYS251      0.1693
    168  C         15.7910   30.7520   23.9050 C.2   251  LYS251      0.2591
    169  O         15.2990   30.7060   25.0470 O.2   251  LYS251     -0.2718
    170  CB        17.6770   30.1980   22.3140 C.3   251  LYS251      0.0285
    171  CG        18.5890   31.4230   22.4230 C.3   251  LYS251      0.0035
    172  CD        19.3400   31.6430   21.1020 C.3   251  LYS251      0.0206
    173  CE        20.1300   32.9330   21.2100 C.3   251  LYS251      0.1093
    174  NZ        20.9710   33.1620   19.9800 N.3   251  LYS251     -0.1314
    175  N         15.3190   31.5580   22.9470 N.am  252  GLU252     -0.1979
    176  CA        14.2120   32.4930   23.1890 C.3   252  GLU252      0.1602
    177  C         13.0020   31.6920   23.6230 C.2   252  GLU252      0.2287
    178  O         12.2240   32.1200   24.4950 O.2   252  GLU252     -0.2864
    179  CB        13.9010   33.3510   21.9550 C.3   252  GLU252      0.0415
    180  CG        15.0750   34.2430   21.5050 C.3   252  GLU252      0.1163
    181  CD        16.1050   33.5470   20.6010 C.2   252  GLU252      0.3649
    182  OE1       16.0210   32.3300   20.3510 O.co2 252  GLU252     -0.2457
    183  OE2       17.0640   34.2160   20.1440 O.co2 252  GLU252     -0.2457
    184  N         13.2900   25.8890   20.7970 N.3   255  TRP255     -0.1241
    185  CA        13.2650   25.5500   19.3590 C.3   255  TRP255      0.1605
    186  C         13.6470   24.1240   19.0730 C.2   255  TRP255      0.2264
    187  O         13.4690   23.6640   17.9340 O.2   255  TRP255     -0.2867
    188  CB        14.2780   26.4320   18.6190 C.3   255  TRP255      0.0550
    189  CG        14.1000   27.9270   18.7680 C.ar  255  TRP255      0.0003
    190  CD1       15.0300   28.7990   19.2930 C.ar  255  TRP255      0.0946
    191  CD2       12.9770   28.7130   18.3620 C.ar  255  TRP255      0.0152
    192  NE1       14.5480   30.0710   19.2040 N.ar  255  TRP255     -0.2442
    193  CE2       13.2910   30.0620   18.6480 C.ar  255  TRP255      0.0810
    194  CE3       11.7420   28.4190   17.7770 C.ar  255  TRP255      0.0012
    195  CZ2       12.4070   31.1030   18.3610 C.ar  255  TRP255      0.0191
    196  CZ3       10.8520   29.4530   17.4860 C.ar  255  TRP255      0.0001
    197  CH2       11.1830   30.7850   17.8020 C.ar  255  TRP255      0.0015
@<TRIPOS>BOND
     1   106   105    2
     2   103   104    1
     3   105   104    1
     4   104   107    1
     5    59    58    1
     6    59    62    1
     7    59    60    1
     8    68    60   am
     9    68    69    1
    10    62    63    1
    11    60    61    2
    12    70    69    1
    13    70    71    2
    14    69    72    1
    15   107   108    1
    16   137   138    1
    17   108   109    2
    18   108   110   am
    19    63    65   ar
    20    63    64   ar
    21    72    73    1
    22    73    74    1
    23   140   139    2
    24    65    67   ar
    25   139   138    1
    26   138   141    1
    27    64    66   ar
    28    74    76   ar
    29    74    75   ar
    30   141   142    1
    31   142   143    1
    32    67    66   ar
    33   144   143    2
    34    35    36    1
    35   111   112    1
    36   143   145   am
    37    90    88   ar
    38    90    89   ar
    39    88    86   ar
    40    36    37    1
    41    36    39    1
    42    98   100   ar
    43    98    96   ar
    44    37    38    2
    45   100   101   ar
    46    94    93    2
    47   114   113    2
    48    95    96    1
    49    95    92    1
    50    89    87   ar
    51   112   113    1
    52   112   115    1
    53    86    85   ar
    54    86    84   ar
    55    96    97   ar
    56    40    39    1
    57    40    41    1
    58     1     2    1
    59    85    83   ar
    60    32    34   ar
    61    32    30   ar
    62    93    92    1
    63   146   147    1
    64    34    33   ar
    65   118   120   ar
    66   118   116   ar
    67    87    84   ar
    68    92    91    1
    69    30    29   ar
    70   120   121   ar
    71   101   102    1
    72   101    99   ar
    73    84    82   ar
    74    77    78    1
    75    91    79   am
    76    25    24    1
    77    25    26    1
    78    25    28    1
    79    83    82   ar
    80   115   116    1
    81    43    41   ar
    82   116   117   ar
    83     2     5    1
    84     2     3    1
    85    44    45    1
    86   121   122    1
    87   121   119   ar
    88    97    99   ar
    89    33    31   ar
    90    41    42   ar
    91     5     6    1
    92    29    31   ar
    93    29    28    1
    94    82    81    1
    95   150   147    1
    96   150   151    1
    97   147   148    1
    98    26    27    2
    99   117   119   ar
   100   131   129   ar
   101   131   132   ar
   102   152   151   ar
   103   152   154   ar
   104    79    78    1
   105    79    80    2
   106    78    81    1
   107   129   128   ar
   108    45    46    1
   109    45    48    1
   110   151   153   ar
   111    46    47    2
   112     3     4    2
   113   123   124    1
   114   154   156   ar
   115     6     8   ar
   116     6     7   ar
   117   148   149    2
   118    11     8   ar
   119    11    13   ar
   120   132   134   ar
   121   132   130   ar
   122   134   136   ar
   123    50    52   ar
   124    50    49   ar
   125     8    10   ar
   126   128   130   ar
   127   128   127    1
   128    52    53   ar
   129    49    48    1
   130    49    51   ar
   131   153   155   ar
   132     7     9   ar
   133    22    21    2
   134    53    51   ar
   135    53    55   ar
   136    13    14   ar
   137    51    54   ar
   138   156   155   ar
   139    55    57   ar
   140   130   133   ar
   141   124   127    1
   142   124   125    1
   143    54    56   ar
   144    57    56   ar
   145   196   194   ar
   146   196   197   ar
   147   136   135   ar
   148    10     9   ar
   149    10    12   ar
   150   194   191   ar
   151   197   195   ar
   152    21    23   am
   153    21    20    1
   154   187   186    2
   155   125   126    2
   156    14    12   ar
   157   195   193   ar
   158   191   193   ar
   159   191   189   ar
   160    17    16    1
   161    17    18    2
   162   133   135   ar
   163   188   189    1
   164   188   185    1
   165   193   192   ar
   166    16    19    1
   167    16    15    1
   168   189   190   ar
   169   186   185    1
   170    19    20    1
   171   192   190   ar
   172   185   184    1
   173   157   158    1
   174   174   173    1
   175   164   163   ar
   176   183   181   ar
   177   161   158    1
   178   161   162    1
   179   182   181   ar
   180   181   180    1
   181   158   159    1
   182   160   159    2
   183   172   173    1
   184   172   171    1
   185   163   162    1
   186   163   165   ar
   187   180   179    1
   188   179   176    1
   189   170   171    1
   190   170   167    1
   191   175   176    1
   192   175   168   am
   193   176   177    1
   194   166   167    1
   195   167   168    1
   196   177   178    2
   197   168   169    2
