@<TRIPOS>MOLECULE
tmp/2ciqA00.pdb
 88 88 0 0 0
SMALL
GASTEIGER

@<TRIPOS>ATOM
      1  N         33.7470   -6.2480   20.8730 N.3   208  VAL208     -0.1231
      2  CA        34.2770   -5.5140   22.0090 C.3   208  VAL208      0.1692
      3  C         33.2160   -5.4140   23.1050 C.2   208  VAL208      0.2593
      4  O         32.1540   -4.8110   22.8970 O.2   208  VAL208     -0.2718
      5  CB        34.7650   -4.0950   21.5940 C.3   208  VAL208      0.0266
      6  CG1       35.2950   -3.3510   22.8170 C.3   208  VAL208      0.0020
      7  CG2       35.8740   -4.2130   20.5660 C.3   208  VAL208      0.0020
      8  N         33.5030   -6.0080   24.2620 N.am  209  SER209     -0.1938
      9  CA        32.4910   -6.1240   25.3070 C.3   209  SER209      0.2055
     10  C         32.6150   -5.0150   26.3180 C.2   209  SER209      0.2643
     11  O         33.5620   -4.2290   26.2980 O.2   209  SER209     -0.2714
     12  CB        32.6020   -7.4670   26.0390 C.3   209  SER209      0.2130
     13  OG        33.7360   -7.4510   26.8930 O.3   209  SER209     -0.2179
     14  N         31.6560   -4.9700   27.2320 N.am  210  ALA210     -0.1963
     15  CA        31.7400   -4.0520   28.3490 C.3   210  ALA210      0.1728
     16  C         32.9840   -4.2570   29.2030 C.2   210  ALA210      0.2616
     17  O         33.3350   -3.3690   29.9820 O.2   210  ALA210     -0.2715
     18  CB        30.4750   -4.1460   29.2270 C.3   210  ALA210      0.0334
     19  N         33.6480   -5.4100   29.0570 N.am  211  GLU211     -0.1977
     20  CA        34.8180   -5.6950   29.8820 C.3   211  GLU211      0.1602
     21  C         36.1410   -5.1800   29.3000 C.2   211  GLU211      0.2287
     22  O         37.1570   -5.1360   30.0100 O.2   211  GLU211     -0.2864
     23  CB        34.9430   -7.1920   30.1640 C.3   211  GLU211      0.0415
     24  CG        33.5930   -7.8830   30.4690 C.3   211  GLU211      0.1163
     25  CD        32.8960   -7.2830   31.6890 C.2   211  GLU211      0.3649
     26  OE1       33.5810   -6.7040   32.5630 O.co2 211  GLU211     -0.2457
     27  OE2       31.6560   -7.3910   31.7750 O.co2 211  GLU211     -0.2457
     28  N         32.2550    0.9770   27.2460 N.3   228  ARG228     -0.1231
     29  CA        30.9430    1.0050   26.6330 C.3   228  ARG228      0.1694
     30  C         30.0500   -0.0960   27.1510 C.2   228  ARG228      0.2592
     31  O         30.5360   -1.0400   27.7780 O.2   228  ARG228     -0.2718
     32  CB        31.0290    1.0030   25.1070 C.3   228  ARG228      0.0321
     33  CG        30.8740   -0.3540   24.3990 C.3   228  ARG228      0.0489
     34  CD        32.1150   -1.2510   24.4810 C.3   228  ARG228      0.2205
     35  NE        33.3340   -0.5530   24.0110 N.pl3 228  ARG228     -0.0865
     36  CZ        33.6400   -0.3170   22.7330 C.cat 228  ARG228      0.5346
     37  NH1       32.8260   -0.7020   21.7450 N.pl3 228  ARG228      0.1354
     38  NH2       34.7690    0.3320   22.4250 N.pl3 228  ARG228      0.1354
     39  N         28.7540    0.0400   26.9120 N.am  229  TYR229     -0.1962
     40  CA        27.8270   -1.0320   27.1630 C.3   229  TYR229      0.1771
     41  C         26.9640   -1.2240   25.9200 C.2   229  TYR229      0.2620
     42  O         26.4100   -0.2600   25.3880 O.2   229  TYR229     -0.2715
     43  CB        26.9280   -0.7430   28.3700 C.3   229  TYR229      0.0574
     44  CG        25.7190   -1.6370   28.3690 C.ar  229  TYR229     -0.0198
     45  CD1       25.8580   -3.0160   28.5500 C.ar  229  TYR229     -0.0009
     46  CD2       24.4350   -1.1110   28.1740 C.ar  229  TYR229     -0.0009
     47  CE1       24.7450   -3.8590   28.5360 C.ar  229  TYR229      0.0417
     48  CE2       23.3050   -1.9460   28.1440 C.ar  229  TYR229      0.0417
     49  CZ        23.4820   -3.3200   28.3230 C.ar  229  TYR229      0.1957
     50  OH        22.3890   -4.1610   28.3040 O.3   229  TYR229     -0.2866
     51  N         26.8850   -2.4630   25.4430 N.am  230  ASN230     -0.1958
     52  CA        25.9840   -2.8370   24.3410 C.3   230  ASN230      0.1819
     53  C         26.3260   -2.2290   22.9850 C.2   230  ASN230      0.2621
     54  O         25.4540   -1.9860   22.1400 O.2   230  ASN230     -0.2715
     55  CB        24.5050   -2.5540   24.7140 C.3   230  ASN230      0.1195
     56  CG        23.5590   -3.5580   24.1050 C.2   230  ASN230      0.2630
     57  OD1       23.9800   -4.6420   23.6660 O.2   230  ASN230     -0.2716
     58  ND2       22.2840   -3.2120   24.0570 N.am  230  ASN230     -0.0877
     59  N         27.6160   -1.9850   22.7840 N.am  231  LEU231     -0.1977
     60  CA        28.1130   -1.4900   21.4980 C.3   231  LEU231      0.1596
     61  C         29.3390   -2.3240   21.1440 C.2   231  LEU231      0.2287
     62  O         30.4560   -2.0380   21.5810 O.2   231  LEU231     -0.2864
     63  CB        28.4650    0.0170   21.6000 C.3   231  LEU231      0.0297
     64  CG        27.2430    0.9130   21.8870 C.3   231  LEU231      0.0022
     65  CD1       27.7250    2.3070   22.2140 C.3   231  LEU231      0.0001
     66  CD2       26.2320    0.9010   20.7290 C.3   231  LEU231      0.0001
     67  N         15.8620   -0.5490   22.8280 N.3   279  TRP279     -0.1227
     68  CA        17.2660   -0.9490   22.8320 C.3   279  TRP279      0.1737
     69  C         18.0230    0.1740   23.5220 C.2   279  TRP279      0.2595
     70  O         17.7030    1.3400   23.3310 O.2   279  TRP279     -0.2718
     71  CB        17.7540   -1.1760   21.3830 C.3   279  TRP279      0.0564
     72  CG        19.2600   -1.3550   21.2010 C.ar  279  TRP279      0.0003
     73  CD1       19.9850   -2.5370   21.2160 C.ar  279  TRP279      0.0946
     74  CD2       20.1980   -0.3030   20.9820 C.ar  279  TRP279      0.0152
     75  NE1       21.3360   -2.2590   21.0210 N.ar  279  TRP279     -0.2442
     76  CE2       21.4910   -0.8940   20.8890 C.ar  279  TRP279      0.0810
     77  CE3       20.0740    1.0860   20.8730 C.ar  279  TRP279      0.0012
     78  CZ2       22.6470   -0.1290   20.6600 C.ar  279  TRP279      0.0191
     79  CZ3       21.2200    1.8410   20.6430 C.ar  279  TRP279      0.0001
     80  CH2       22.4900    1.2220   20.5450 C.ar  279  TRP279      0.0015
     81  N         19.0310   -0.1640   24.3230 N.am  280  ASN280     -0.1974
     82  CA        19.8050    0.8900   24.9600 C.3   280  ASN280      0.1688
     83  C         21.2720    0.5330   25.0660 C.2   280  ASN280      0.2292
     84  O         21.6500   -0.6520   25.0630 O.2   280  ASN280     -0.2864
     85  CB        19.2540    1.2750   26.3370 C.3   280  ASN280      0.1181
     86  CG        19.5150    0.1950   27.3910 C.2   280  ASN280      0.2629
     87  OD1       18.8340   -0.8300   27.4210 O.2   280  ASN280     -0.2716
     88  ND2       20.5020    0.4210   28.2440 N.am  280  ASN280     -0.0877
@<TRIPOS>BOND
     1    80    79   ar
     2    80    78   ar
     3     7     5    1
     4    79    77   ar
     5    78    76   ar
     6    66    64    1
     7    77    74   ar
     8     1     2    1
     9    76    74   ar
    10    76    75   ar
    11    74    72   ar
    12    75    73   ar
    13    61    60    1
    14    61    62    2
    15    72    73   ar
    16    72    71    1
    17    71    68    1
    18    60    63    1
    19    60    59    1
    20     5     2    1
    21     5     6    1
    22    63    64    1
    23    37    36    1
    24    64    65    1
    25     2     3    1
    26    54    53    2
    27    38    36    1
    28    36    35    2
    29    59    53   am
    30    67    68    1
    31    68    69    1
    32     4     3    2
    33    53    52    1
    34     3     8   am
    35    70    69    2
    36    69    81   am
    37    57    56    2
    38    35    34    1
    39    58    56   am
    40    56    55    1
    41     8     9    1
    42    81    82    1
    43    52    55    1
    44    52    51    1
    45    33    34    1
    46    33    32    1
    47    82    83    1
    48    82    85    1
    49    84    83    2
    50    32    29    1
    51     9    12    1
    52     9    10    1
    53    42    41    2
    54    51    41   am
    55    41    40    1
    56    12    13    1
    57    11    10    2
    58    10    14   am
    59    85    86    1
    60    29    30    1
    61    29    28    1
    62    39    30   am
    63    39    40    1
    64    30    31    2
    65    40    43    1
    66    14    15    1
    67    86    87    2
    68    86    88   am
    69    48    46   ar
    70    48    49   ar
    71    46    44   ar
    72    50    49    1
    73    49    47   ar
    74    15    16    1
    75    15    18    1
    76    44    43    1
    77    44    45   ar
    78    47    45   ar
    79    19    16   am
    80    19    20    1
    81    16    17    2
    82    21    20    1
    83    21    22    2
    84    20    23    1
    85    23    24    1
    86    24    25    1
    87    25    27   ar
    88    25    26   ar
