@<TRIPOS>MOLECULE
tmp/2cirA00.pdb
 142 135 0 0 0
SMALL
GASTEIGER

@<TRIPOS>ATOM
      1  N         -3.0710  -15.5690   -3.7410 N.3    56  ARG56      -0.1245
      2  CA        -3.6700  -15.2140   -5.0350 C.3    56  ARG56       0.1563
      3  C         -3.8120  -16.4810   -5.8890 C.2    56  ARG56       0.2260
      4  O         -2.9550  -16.8030   -6.7120 O.2    56  ARG56      -0.2867
      5  CB        -2.8220  -14.1400   -5.7610 C.3    56  ARG56       0.0307
      6  CG        -3.3770  -13.7110   -7.1350 C.3    56  ARG56       0.0489
      7  CD        -4.7340  -13.0490   -7.0070 C.3    56  ARG56       0.2205
      8  NE        -4.7200  -11.7890   -6.2590 N.pl3  56  ARG56      -0.0865
      9  CZ        -5.8150  -11.2150   -5.7540 C.cat  56  ARG56       0.5346
     10  NH1       -7.0160  -11.7940   -5.9040 N.pl3  56  ARG56       0.1354
     11  NH2       -5.7200  -10.0700   -5.0800 N.pl3  56  ARG56       0.1354
     12  N        -18.5600  -11.6800    2.5540 N.3    66  PHE66      -0.1227
     13  CA       -18.1620  -11.6310    1.1540 C.3    66  PHE66       0.1736
     14  C        -18.1670  -10.1760    0.6780 C.2    66  PHE66       0.2596
     15  O        -19.1240   -9.4490    0.9200 O.2    66  PHE66      -0.2718
     16  CB       -19.1190  -12.4480    0.2840 C.3    66  PHE66       0.0547
     17  CG       -18.8570  -12.3030   -1.1940 C.ar   66  PHE66      -0.0202
     18  CD1      -17.7610  -12.9340   -1.7900 C.ar   66  PHE66      -0.0042
     19  CD2      -19.7030  -11.5180   -1.9870 C.ar   66  PHE66      -0.0042
     20  CE1      -17.5160  -12.7880   -3.1560 C.ar   66  PHE66      -0.0003
     21  CE2      -19.4710  -11.3750   -3.3420 C.ar   66  PHE66      -0.0003
     22  CZ       -18.3620  -11.9920   -3.9260 C.ar   66  PHE66      -0.0000
     23  N        -17.1080   -9.7770   -0.0100 N.am   67  GLY67      -0.1957
     24  CA       -16.9800   -8.4050   -0.4990 C.3    67  GLY67       0.1869
     25  C        -16.7020   -7.4420    0.6400 C.2    67  GLY67       0.2309
     26  O        -16.1310   -7.8250    1.6650 O.2    67  GLY67      -0.2863
     27  N        -12.1420   -6.4790    2.6190 N.3    80  GLN80      -0.1231
     28  CA       -12.8270   -7.2720    1.6300 C.3    80  GLN80       0.1698
     29  C        -12.6090   -8.7790    1.8520 C.2    80  GLN80       0.2592
     30  O        -11.4770   -9.2360    2.0060 O.2    80  GLN80      -0.2718
     31  CB       -12.3400   -6.8550    0.2510 C.3    80  GLN80       0.0381
     32  CG       -12.8890   -7.6540   -0.8980 C.3    80  GLN80       0.0905
     33  CD       -12.6790   -6.9150   -2.2020 C.2    80  GLN80       0.2608
     34  OE1      -13.4450   -6.0060   -2.5420 O.2    80  GLN80      -0.2717
     35  NE2      -11.6340   -7.2870   -2.9340 N.am   80  GLN80      -0.0878
     36  N        -13.7200   -9.5190    1.8670 N.am   81  HIS81      -0.1976
     37  CA       -13.7390  -10.9900    1.9680 C.3    81  HIS81       0.1656
     38  C        -13.3750  -11.5520    3.3460 C.2    81  HIS81       0.2291
     39  O        -13.1700  -12.7620    3.4860 O.2    81  HIS81      -0.2864
     40  CB       -12.9000  -11.6580    0.8660 C.3    81  HIS81       0.0771
     41  CG       -13.3450  -11.3250   -0.5280 C.ar   81  HIS81       0.0820
     42  ND1      -14.6640  -11.1110   -0.8600 N.ar   81  HIS81      -0.2267
     43  CD2      -12.6430  -11.2090   -1.6790 C.ar   81  HIS81       0.1154
     44  CE1      -14.7550  -10.8680   -2.1570 C.ar   81  HIS81       0.1986
     45  NE2      -13.5400  -10.9120   -2.6770 N.ar   81  HIS81      -0.2212
     46  N         -9.1940  -16.0340    5.4550 N.3    85  ARG85      -0.1245
     47  CA        -8.1060  -16.2470    4.5080 C.3    85  ARG85       0.1563
     48  C         -6.8180  -15.5370    4.9280 C.2    85  ARG85       0.2260
     49  O         -5.7810  -15.6900    4.2580 O.2    85  ARG85      -0.2867
     50  CB        -8.5160  -15.8440    3.0790 C.3    85  ARG85       0.0307
     51  CG        -8.7860  -14.3520    2.9210 C.3    85  ARG85       0.0489
     52  CD        -9.2180  -14.0260    1.4960 C.3    85  ARG85       0.2205
     53  NE        -9.3840  -12.5890    1.3130 N.pl3  85  ARG85      -0.0865
     54  CZ        -9.4480  -11.9790    0.1300 C.cat  85  ARG85       0.5346
     55  NH1       -9.3460  -12.6760   -1.0020 N.pl3  85  ARG85       0.1354
     56  NH2       -9.6040  -10.6640    0.0850 N.pl3  85  ARG85       0.1354
     57  N        -13.5740  -19.4910   -2.6970 N.3   158  HIS158     -0.1241
     58  CA       -13.1610  -18.6350   -3.8080 C.3   158  HIS158      0.1621
     59  C        -12.3490  -19.4280   -4.8440 C.2   158  HIS158      0.2264
     60  O        -11.1710  -19.1690   -5.0760 O.2   158  HIS158     -0.2867
     61  CB       -12.4040  -17.4140   -3.2440 C.3   158  HIS158      0.0745
     62  CG       -12.3110  -16.2600   -4.1900 C.ar  158  HIS158      0.0817
     63  ND1      -11.5720  -16.3100   -5.3460 N.ar  158  HIS158     -0.2268
     64  CD2      -12.8290  -15.0080   -4.1260 C.ar  158  HIS158      0.1154
     65  CE1      -11.6430  -15.1410   -5.9660 C.ar  158  HIS158      0.1986
     66  NE2      -12.4110  -14.3370   -5.2530 N.ar  158  HIS158     -0.2212
     67  N        -10.3840  -20.9720   -7.7560 N.3   160  TYR160     -0.1241
     68  CA        -9.7260  -20.5830   -9.0120 C.3   160  TYR160      0.1605
     69  C         -9.4920  -21.8390   -9.8370 C.2   160  TYR160      0.2264
     70  O         -8.5410  -22.5710   -9.5750 O.2   160  TYR160     -0.2867
     71  CB        -8.3510  -19.9390   -8.7510 C.3   160  TYR160      0.0534
     72  CG        -8.2990  -18.5330   -8.1560 C.ar  160  TYR160     -0.0201
     73  CD1       -7.8560  -17.4410   -8.9280 C.ar  160  TYR160     -0.0009
     74  CD2       -8.5840  -18.3010   -6.8090 C.ar  160  TYR160     -0.0009
     75  CE1       -7.7380  -16.1630   -8.3800 C.ar  160  TYR160      0.0417
     76  CE2       -8.4780  -17.0160   -6.2500 C.ar  160  TYR160      0.0417
     77  CZ        -8.0460  -15.9480   -7.0500 C.ar  160  TYR160      0.1957
     78  OH        -7.9230  -14.6750   -6.5130 O.3   160  TYR160     -0.2866
     79  N        -21.7980   -7.1050  -10.6110 N.3   182  GLN182     -0.1245
     80  CA       -21.0840   -6.1540   -9.7410 C.3   182  GLN182      0.1566
     81  C        -20.3710   -5.0460  -10.5200 C.2   182  GLN182      0.2260
     82  O        -19.9190   -4.0490   -9.9350 O.2   182  GLN182     -0.2867
     83  CB       -20.0720   -6.8740   -8.8540 C.3   182  GLN182      0.0367
     84  CG       -20.6740   -7.9760   -8.0290 C.3   182  GLN182      0.0905
     85  CD       -19.8900   -8.2550   -6.7700 C.2   182  GLN182      0.2608
     86  OE1      -18.9230   -9.0210   -6.7700 O.2   182  GLN182     -0.2717
     87  NE2      -20.3070   -7.6400   -5.6870 N.am  182  GLN182     -0.0878
     88  N        -17.7210  -10.1020  -13.3050 N.3   202  ASP202     -0.1239
     89  CA       -17.8590  -10.1460  -11.8470 C.3   202  ASP202      0.1674
     90  C        -19.3420  -10.1960  -11.5260 C.2   202  ASP202      0.2266
     91  O        -20.0050   -9.1630  -11.3780 O.2   202  ASP202     -0.2867
     92  CB       -17.1550   -8.9230  -11.2400 C.3   202  ASP202      0.1410
     93  CG       -16.9440   -9.0450   -9.7510 C.2   202  ASP202      0.3668
     94  OD1      -17.5320   -9.9480   -9.1220 O.co2 202  ASP202     -0.2456
     95  OD2      -16.1850   -8.2090   -9.2110 O.co2 202  ASP202     -0.2456
     96  N        -20.4950  -17.0950   -7.5020 N.3   235  VAL235     -0.1245
     97  CA       -19.7930  -15.9450   -8.0670 C.3   235  VAL235      0.1561
     98  C        -18.9520  -16.3960   -9.2540 C.2   235  VAL235      0.2260
     99  O        -18.2170  -17.3870   -9.1750 O.2   235  VAL235     -0.2867
    100  CB       -18.9280  -15.2370   -7.0010 C.3   235  VAL235      0.0252
    101  CG1      -18.1940  -14.0270   -7.6150 C.3   235  VAL235      0.0019
    102  CG2      -19.8110  -14.8050   -5.8220 C.3   235  VAL235      0.0019
    103  N        -16.0810  -14.9290  -11.7710 N.3   237  TRP237     -0.1241
    104  CA       -15.1660  -13.7820  -11.8260 C.3   237  TRP237      0.1605
    105  C        -13.9320  -14.0540  -12.6630 C.2   237  TRP237      0.2264
    106  O        -13.2880  -15.0880  -12.5370 O.2   237  TRP237     -0.2867
    107  CB       -14.7670  -13.3790  -10.4060 C.3   237  TRP237      0.0550
    108  CG       -13.7350  -12.2670  -10.3310 C.ar  237  TRP237      0.0003
    109  CD1      -13.9250  -10.9450  -10.6380 C.ar  237  TRP237      0.0946
    110  CD2      -12.3790  -12.3890   -9.8790 C.ar  237  TRP237      0.0152
    111  NE1      -12.7560  -10.2400  -10.4160 N.ar  237  TRP237     -0.2442
    112  CE2      -11.7980  -11.1020   -9.9440 C.ar  237  TRP237      0.0810
    113  CE3      -11.5940  -13.4570   -9.4330 C.ar  237  TRP237      0.0012
    114  CZ2      -10.4700  -10.8670   -9.5870 C.ar  237  TRP237      0.0191
    115  CZ3      -10.2650  -13.2120   -9.0640 C.ar  237  TRP237      0.0001
    116  CH2       -9.7250  -11.9250   -9.1400 C.ar  237  TRP237      0.0015
    117  N         -7.2670   -5.1690  -14.4980 N.3   243  LYS243     -0.1245
    118  CA        -7.2490   -5.5260  -13.0840 C.3   243  LYS243      0.1561
    119  C         -6.1030   -6.4760  -12.7410 C.2   243  LYS243      0.2260
    120  O         -5.4730   -6.3360  -11.6900 O.2   243  LYS243     -0.2867
    121  CB        -8.5840   -6.1240  -12.6750 C.3   243  LYS243      0.0271
    122  CG        -9.6610   -5.0850  -12.4660 C.3   243  LYS243      0.0035
    123  CD       -10.7610   -5.6290  -11.5750 C.3   243  LYS243      0.0206
    124  CE       -10.1880   -6.4760  -10.4450 C.3   243  LYS243      0.1093
    125  NZ       -11.0670   -6.4520   -9.2530 N.3   243  LYS243     -0.1314
    126  N         -2.7800   -5.8680   -9.9730 N.3   247  MET247     -0.1245
    127  CA        -2.5500   -6.7520   -8.8100 C.3   247  MET247      0.1570
    128  C         -1.0970   -7.2060   -8.7780 C.2   247  MET247      0.2261
    129  O         -0.6770   -8.0060   -9.6160 O.2   247  MET247     -0.2867
    130  CB        -3.4510   -7.9930   -8.8760 C.3   247  MET247      0.0387
    131  CG        -4.9210   -7.7440   -8.5950 C.3   247  MET247      0.0595
    132  SD        -5.8960   -9.2540   -8.8120 S.3   247  MET247     -0.1393
    133  CE        -7.4910   -8.6850   -8.2720 C.3   247  MET247      0.0692
    134  N        -17.3870  -19.6870   -7.8630 N.3   263  GLU263     -0.1245
    135  CA       -17.2280  -19.6440   -6.4020 C.3   263  GLU263      0.1567
    136  C        -18.5700  -19.9160   -5.7260 C.2   263  GLU263      0.2260
    137  O        -19.4250  -19.0180   -5.6510 O.2   263  GLU263     -0.2867
    138  CB       -16.7140  -18.2500   -5.9930 C.3   263  GLU263      0.0388
    139  CG       -15.5850  -17.7010   -6.8850 C.3   263  GLU263      0.1160
    140  CD       -15.3320  -16.2220   -6.6340 C.2   263  GLU263      0.3649
    141  OE1      -14.6980  -15.5730   -7.5120 O.co2 263  GLU263     -0.2457
    142  OE2      -15.7940  -15.6930   -5.5790 O.co2 263  GLU263     -0.2457
@<TRIPOS>BOND
     1   117   118    1
     2    88    89    1
     3   118   119    1
     4   118   121    1
     5   119   120    2
     6   121   122    1
     7   105   106    2
     8   105   104    1
     9   122   123    1
    10    89    90    1
    11    89    92    1
    12   104   103    1
    13   104   107    1
    14   123   124    1
    15    90    91    2
    16    92    93    1
    17   109   111   ar
    18   109   108   ar
    19    79    80    1
    20    81    82    2
    21    81    80    1
    22   124   125    1
    23   111   112   ar
    24   107   108    1
    25   108   110   ar
    26   126   127    1
    27   112   110   ar
    28   112   114   ar
    29   110   113   ar
    30    69    70    2
    31    69    68    1
    32    93    95   ar
    33    93    94   ar
    34    80    83    1
    35   129   128    2
    36   114   116   ar
    37   113   115   ar
    38    98    99    2
    39    98    97    1
    40   116   115   ar
    41    68    71    1
    42    68    67    1
    43    73    75   ar
    44    73    72   ar
    45   130   127    1
    46   130   131    1
    47    83    84    1
    48   132   131    1
    49   132   133    1
    50   127   128    1
    51    71    72    1
    52    75    77   ar
    53    72    74   ar
    54    97    96    1
    55    97   100    1
    56    84    85    1
    57   134   135    1
    58   101   100    1
    59   141   140   ar
    60     6     7    1
    61     6     5    1
    62    77    78    1
    63    77    76   ar
    64     7     8    1
    65   100   102    1
    66   139   140    1
    67   139   138    1
    68    74    76   ar
    69    85    86    2
    70    85    87   am
    71     4     3    2
    72   140   142   ar
    73   135   138    1
    74   135   136    1
    75     8     9    2
    76    65    63   ar
    77    65    66   ar
    78    10     9    1
    79     3     2    1
    80     5     2    1
    81     9    11    1
    82   136   137    2
    83    63    62   ar
    84    66    64   ar
    85    60    59    2
    86     2     1    1
    87    59    58    1
    88    62    64   ar
    89    62    61    1
    90    22    21   ar
    91    22    20   ar
    92    58    61    1
    93    58    57    1
    94    21    19   ar
    95    20    18   ar
    96    35    33   am
    97    45    44   ar
    98    45    43   ar
    99    34    33    2
   100    33    32    1
   101    44    42   ar
   102    19    17   ar
   103    18    17   ar
   104    43    41   ar
   105    17    16    1
   106    55    54    1
   107    32    31    1
   108    42    41   ar
   109    41    40    1
   110    24    23    1
   111    24    25    1
   112    23    14   am
   113    56    54    1
   114    54    53    2
   115    31    28    1
   116    16    13    1
   117    25    26    2
   118    14    15    2
   119    14    13    1
   120    40    37    1
   121    13    12    1
   122    53    52    1
   123    52    51    1
   124    28    29    1
   125    28    27    1
   126    29    36   am
   127    29    30    2
   128    36    37    1
   129    37    38    1
   130    51    50    1
   131    50    47    1
   132    38    39    2
   133    49    48    2
   134    47    48    1
   135    47    46    1
