@<TRIPOS>MOLECULE
tmp/2cisA00.pdb
 133 127 0 0 0
SMALL
GASTEIGER

@<TRIPOS>ATOM
      1  N          2.7640   15.3420   -3.6720 N.3    56  ARG56      -0.1245
      2  CA         3.3680   14.9970   -4.9590 C.3    56  ARG56       0.1563
      3  C          3.4820   16.2530   -5.8210 C.2    56  ARG56       0.2260
      4  O          2.6150   16.5530   -6.6520 O.2    56  ARG56      -0.2867
      5  CB         2.5710   13.8810   -5.6590 C.3    56  ARG56       0.0307
      6  CG         3.1080   13.4830   -7.0320 C.3    56  ARG56       0.0489
      7  CD         4.4730   12.8280   -6.9410 C.3    56  ARG56       0.2205
      8  NE         4.4570   11.6070   -6.1370 N.pl3  56  ARG56      -0.0865
      9  CZ         5.5470   11.0420   -5.6230 C.cat  56  ARG56       0.5346
     10  NH1        6.7520   11.6010   -5.8100 N.pl3  56  ARG56       0.1354
     11  NH2        5.4330    9.9380   -4.8890 N.pl3  56  ARG56       0.1354
     12  N         18.2080   11.4500    2.5950 N.3    66  PHE66      -0.1227
     13  CA        17.8380   11.4030    1.1780 C.3    66  PHE66       0.1736
     14  C         17.8230    9.9520    0.6820 C.2    66  PHE66       0.2596
     15  O         18.7660    9.2090    0.8920 O.2    66  PHE66      -0.2718
     16  CB        18.8070   12.2340    0.3280 C.3    66  PHE66       0.0547
     17  CG        18.5940   12.0670   -1.1500 C.ar   66  PHE66      -0.0202
     18  CD1       17.5960   12.7880   -1.8040 C.ar   66  PHE66      -0.0042
     19  CD2       19.3710   11.1700   -1.8860 C.ar   66  PHE66      -0.0042
     20  CE1       17.3820   12.6240   -3.1770 C.ar   66  PHE66      -0.0003
     21  CE2       19.1540   11.0060   -3.2600 C.ar   66  PHE66      -0.0003
     22  CZ        18.1590   11.7170   -3.8920 C.ar   66  PHE66      -0.0000
     23  N         16.7430    9.5840    0.0040 N.am   67  GLY67      -0.1957
     24  CA        16.5800    8.2360   -0.4940 C.3    67  GLY67       0.1869
     25  C         16.3620    7.2850    0.6570 C.2    67  GLY67       0.2309
     26  O         15.8900    7.6830    1.7240 O.2    67  GLY67      -0.2863
     27  N         11.8720    6.2800    2.7100 N.3    80  GLN80      -0.1231
     28  CA        12.5690    7.1230    1.7360 C.3    80  GLN80       0.1698
     29  C         12.3210    8.6140    1.9870 C.2    80  GLN80       0.2592
     30  O         11.1770    9.0310    2.1870 O.2    80  GLN80      -0.2718
     31  CB        12.1220    6.7340    0.3230 C.3    80  GLN80       0.0381
     32  CG        12.5670    7.6810   -0.7560 C.3    80  GLN80       0.0905
     33  CD        12.5890    7.0280   -2.1040 C.2    80  GLN80       0.2608
     34  OE1       13.4790    6.2130   -2.4020 O.2    80  GLN80      -0.2717
     35  NE2       11.6160    7.3750   -2.9420 N.am   80  GLN80      -0.0878
     36  N         13.4150    9.3830    1.9770 N.am   81  HIS81      -0.1976
     37  CA        13.3940   10.8440    2.1070 C.3    81  HIS81       0.1656
     38  C         13.0250   11.3980    3.4940 C.2    81  HIS81       0.2291
     39  O         12.8620   12.6180    3.6600 O.2    81  HIS81      -0.2864
     40  CB        12.5390   11.4970    1.0120 C.3    81  HIS81       0.0771
     41  CG        13.0120   11.2210   -0.3850 C.ar   81  HIS81       0.0820
     42  ND1       14.3260   10.9500   -0.6920 N.ar   81  HIS81      -0.2267
     43  CD2       12.3430   11.2240   -1.5590 C.ar   81  HIS81       0.1154
     44  CE1       14.4450   10.7740   -1.9970 C.ar   81  HIS81       0.1986
     45  NE2       13.2570   10.9410   -2.5480 N.ar   81  HIS81      -0.2212
     46  N          8.9120   15.9410    5.5490 N.3    85  ARG85      -0.1245
     47  CA         7.8010   16.1240    4.6070 C.3    85  ARG85       0.1563
     48  C          6.5020   15.4040    5.0120 C.2    85  ARG85       0.2260
     49  O          5.4510   15.5720    4.3510 O.2    85  ARG85      -0.2867
     50  CB         8.2450   15.7080    3.1940 C.3    85  ARG85       0.0307
     51  CG         8.4870   14.2010    3.0410 C.3    85  ARG85       0.0489
     52  CD         8.8430   13.8380    1.5880 C.3    85  ARG85       0.2205
     53  NE         8.9500   12.3840    1.4410 N.pl3  85  ARG85      -0.0865
     54  CZ         9.0260   11.7620    0.2660 C.cat  85  ARG85       0.5346
     55  NH1        9.0070   12.4640   -0.8810 N.pl3  85  ARG85       0.1354
     56  NH2        9.1210   10.4330    0.2360 N.pl3  85  ARG85       0.1354
     57  N         13.3100   19.2440   -2.6580 N.3   158  HIS158     -0.1241
     58  CA        12.9040   18.3770   -3.7860 C.3   158  HIS158      0.1621
     59  C         12.0770   19.1540   -4.8300 C.2   158  HIS158      0.2264
     60  O         10.9120   18.8480   -5.0830 O.2   158  HIS158     -0.2867
     61  CB        12.1720   17.1330   -3.2520 C.3   158  HIS158      0.0745
     62  CG        12.0210   16.0320   -4.2580 C.ar  158  HIS158      0.0817
     63  ND1       11.1930   16.1390   -5.3550 N.ar  158  HIS158     -0.2268
     64  CD2       12.5660   14.7920   -4.3160 C.ar  158  HIS158      0.1154
     65  CE1       11.2480   15.0200   -6.0570 C.ar  158  HIS158      0.1986
     66  NE2       12.0630   14.1810   -5.4430 N.ar  158  HIS158     -0.2212
     67  N         10.0770   20.6760   -7.7070 N.3   160  TYR160     -0.1241
     68  CA         9.4380   20.3290   -8.9900 C.3   160  TYR160      0.1605
     69  C          9.1990   21.6020   -9.8050 C.2   160  TYR160      0.2264
     70  O          8.2280   22.3180   -9.5550 O.2   160  TYR160     -0.2867
     71  CB         8.0800   19.6680   -8.7430 C.3   160  TYR160      0.0534
     72  CG         8.0440   18.2760   -8.1140 C.ar  160  TYR160     -0.0201
     73  CD1        7.6830   17.1680   -8.8790 C.ar  160  TYR160     -0.0009
     74  CD2        8.2580   18.0810   -6.7450 C.ar  160  TYR160     -0.0009
     75  CE1        7.5660   15.8930   -8.3190 C.ar  160  TYR160      0.0417
     76  CE2        8.1560   16.8070   -6.1730 C.ar  160  TYR160      0.0417
     77  CZ         7.7980   15.7230   -6.9690 C.ar  160  TYR160      0.1957
     78  OH         7.6970   14.4790   -6.4170 O.3   160  TYR160     -0.2866
     79  N         21.7540    7.1500  -10.5510 N.3   182  GLN182     -0.1245
     80  CA        20.9540    6.2780   -9.6960 C.3   182  GLN182      0.1566
     81  C         20.3320    5.1230  -10.4610 C.2   182  GLN182      0.2260
     82  O         19.9460    4.1270   -9.8520 O.2   182  GLN182     -0.2867
     83  CB        19.8580    7.0700   -9.0050 C.3   182  GLN182      0.0367
     84  CG        20.3710    8.1400   -8.0490 C.3   182  GLN182      0.0905
     85  CD        20.5260    7.5980   -6.6480 C.2   182  GLN182      0.2608
     86  OE1       19.7690    7.9390   -5.7470 O.2   182  GLN182     -0.2717
     87  NE2       21.5050    6.7200   -6.4650 N.am  182  GLN182     -0.0878
     88  N         17.6390   10.0230  -13.4030 N.3   202  ASP202     -0.1239
     89  CA        17.7730   10.0770  -11.9450 C.3   202  ASP202      0.1674
     90  C         19.2630   10.1390  -11.6160 C.2   202  ASP202      0.2266
     91  O         19.9430    9.1130  -11.4860 O.2   202  ASP202     -0.2867
     92  CB        17.0730    8.8480  -11.3350 C.3   202  ASP202      0.1410
     93  CG        16.8430    8.9670   -9.8580 C.2   202  ASP202      0.3668
     94  OD1       17.3640    9.8950   -9.2000 O.co2 202  ASP202     -0.2456
     95  OD2       16.1150    8.0990   -9.3340 O.co2 202  ASP202     -0.2456
     96  N         20.2340   16.8790   -7.4710 N.3   235  VAL235     -0.1245
     97  CA        19.5330   15.7220   -8.0490 C.3   235  VAL235      0.1561
     98  C         18.7070   16.2150   -9.2300 C.2   235  VAL235      0.2260
     99  O         17.9830   17.2170   -9.1440 O.2   235  VAL235     -0.2867
    100  CB        18.6580   15.0130   -7.0020 C.3   235  VAL235      0.0252
    101  CG1       17.9890   13.7680   -7.6330 C.3   235  VAL235      0.0019
    102  CG2       19.5090   14.6100   -5.8210 C.3   235  VAL235      0.0019
    103  N         15.8480   14.7560  -11.7800 N.3   237  TRP237     -0.1241
    104  CA        14.9460   13.6110  -11.8250 C.3   237  TRP237      0.1605
    105  C         13.7170   13.8690  -12.6680 C.2   237  TRP237      0.2264
    106  O         13.0770   14.9080  -12.5620 O.2   237  TRP237     -0.2867
    107  CB        14.4980   13.2380  -10.4100 C.3   237  TRP237      0.0550
    108  CG        13.4810   12.0930  -10.3560 C.ar  237  TRP237      0.0003
    109  CD1       13.6890   10.7860  -10.7370 C.ar  237  TRP237      0.0946
    110  CD2       12.1290   12.1490   -9.8540 C.ar  237  TRP237      0.0152
    111  NE1       12.5470   10.0380  -10.5070 N.ar  237  TRP237     -0.2442
    112  CE2       11.5750   10.8500   -9.9760 C.ar  237  TRP237      0.0810
    113  CE3       11.3290   13.1750   -9.3370 C.ar  237  TRP237      0.0012
    114  CZ2       10.2610   10.5560   -9.5870 C.ar  237  TRP237      0.0191
    115  CZ3       10.0190   12.8870   -8.9420 C.ar  237  TRP237      0.0001
    116  CH2        9.5030   11.5780   -9.0530 C.ar  237  TRP237      0.0015
    117  N          2.7880    5.6310   -9.9190 N.3   247  MET247     -0.1245
    118  CA         2.5830    6.4590   -8.7240 C.3   247  MET247      0.1570
    119  C          1.1210    6.8750   -8.6060 C.2   247  MET247      0.2261
    120  O          0.6440    7.6410   -9.4330 O.2   247  MET247     -0.2867
    121  CB         3.4640    7.7160   -8.7690 C.3   247  MET247      0.0387
    122  CG         4.9440    7.4880   -8.4590 C.3   247  MET247      0.0595
    123  SD         5.9060    9.0270   -8.4750 S.3   247  MET247     -0.1393
    124  CE         6.2020    9.2480  -10.2230 C.3   247  MET247      0.0692
    125  N         17.0710   19.4680   -7.8360 N.3   263  GLU263     -0.1245
    126  CA        16.9520   19.4250   -6.3580 C.3   263  GLU263      0.1567
    127  C         18.3030   19.7190   -5.6850 C.2   263  GLU263      0.2260
    128  O         19.1730   18.8520   -5.6170 O.2   263  GLU263     -0.2867
    129  CB        16.4600   18.0170   -5.9400 C.3   263  GLU263      0.0388
    130  CG        15.3220   17.4450   -6.8360 C.3   263  GLU263      0.1160
    131  CD        15.1110   15.9580   -6.6130 C.2   263  GLU263      0.3649
    132  OE1       14.4710   15.2960   -7.4850 O.co2 263  GLU263     -0.2457
    133  OE2       15.6190   15.4430   -5.5900 O.co2 263  GLU263     -0.2457
@<TRIPOS>BOND
     1    88    89    1
     2   105   106    2
     3   105   104    1
     4    89    90    1
     5    89    92    1
     6   104   103    1
     7   104   107    1
     8    90    91    2
     9    92    93    1
    10   109   111   ar
    11   109   108   ar
    12    79    80    1
    13   111   112   ar
    14    81    82    2
    15    81    80    1
    16   107   108    1
    17   108   110   ar
    18   124   123    1
    19   112   110   ar
    20   112   114   ar
    21   117   118    1
    22    93    95   ar
    23    93    94   ar
    24   110   113   ar
    25    69    70    2
    26    69    68    1
    27    80    83    1
    28   114   116   ar
    29   120   119    2
    30   113   115   ar
    31    98    99    2
    32    98    97    1
    33   116   115   ar
    34    83    84    1
    35    68    71    1
    36    68    67    1
    37    73    75   ar
    38    73    72   ar
    39   121   118    1
    40   121   122    1
    41    71    72    1
    42   118   119    1
    43   123   122    1
    44    75    77   ar
    45    72    74   ar
    46    97    96    1
    47    97   100    1
    48    84    85    1
    49   125   126    1
    50   101   100    1
    51   132   131   ar
    52     6     7    1
    53     6     5    1
    54   100   102    1
    55    77    78    1
    56    77    76   ar
    57     7     8    1
    58   130   131    1
    59   130   129    1
    60    74    76   ar
    61     4     3    2
    62    85    87   am
    63    85    86    2
    64   131   133   ar
    65   126   129    1
    66   126   127    1
    67     8     9    2
    68    65    66   ar
    69    65    63   ar
    70     3     2    1
    71    10     9    1
    72   127   128    2
    73     5     2    1
    74     9    11    1
    75    66    64   ar
    76    63    62   ar
    77    60    59    2
    78     2     1    1
    79    59    58    1
    80    64    62   ar
    81    62    61    1
    82    22    21   ar
    83    22    20   ar
    84    58    61    1
    85    58    57    1
    86    21    19   ar
    87    20    18   ar
    88    35    33   am
    89    45    44   ar
    90    45    43   ar
    91    34    33    2
    92    33    32    1
    93    44    42   ar
    94    19    17   ar
    95    18    17   ar
    96    43    41   ar
    97    17    16    1
    98    55    54    1
    99    32    31    1
   100    42    41   ar
   101    24    23    1
   102    24    25    1
   103    41    40    1
   104    23    14   am
   105    56    54    1
   106    54    53    2
   107    31    28    1
   108    16    13    1
   109    25    26    2
   110    14    15    2
   111    14    13    1
   112    40    37    1
   113    13    12    1
   114    53    52    1
   115    52    51    1
   116    28    29    1
   117    28    27    1
   118    36    29   am
   119    36    37    1
   120    29    30    2
   121    37    38    1
   122    51    50    1
   123    50    47    1
   124    38    39    2
   125    49    48    2
   126    47    48    1
   127    47    46    1
