@<TRIPOS>MOLECULE
tmp/2citA00.pdb
 225 225 0 0 0
SMALL
GASTEIGER

@<TRIPOS>ATOM
      1  N         21.4720   23.3690   13.2170 N.3     6  TRP6       -0.1241
      2  CA        22.3170   23.8430   14.3340 C.3     6  TRP6        0.1605
      3  C         21.9390   22.9760   15.5180 C.2     6  TRP6        0.2264
      4  O         20.7710   22.8660   15.8440 O.2     6  TRP6       -0.2867
      5  CB        22.0240   25.3230   14.6460 C.3     6  TRP6        0.0550
      6  CG        22.4360   25.8430   16.0000 C.ar    6  TRP6        0.0003
      7  CD1       21.5890   26.1580   17.0410 C.ar    6  TRP6        0.0946
      8  CD2       23.7770   26.1630   16.4580 C.ar    6  TRP6        0.0152
      9  NE1       22.3110   26.6220   18.1260 N.ar    6  TRP6       -0.2442
     10  CE2       23.6580   26.6490   17.7900 C.ar    6  TRP6        0.0810
     11  CE3       25.0570   26.0830   15.8720 C.ar    6  TRP6        0.0012
     12  CZ2       24.7770   27.0450   18.5350 C.ar    6  TRP6        0.0191
     13  CZ3       26.1480   26.5190   16.6010 C.ar    6  TRP6        0.0001
     14  CH2       26.0070   26.9850   17.9350 C.ar    6  TRP6        0.0015
     15  N         28.2600   24.4930   19.4330 N.3    10  GLN10      -0.1245
     16  CA        29.2060   24.3020   18.3360 C.3    10  GLN10       0.1566
     17  C         29.3590   22.8290   18.0030 C.2    10  GLN10       0.2260
     18  O         29.3430   22.0010   18.9280 O.2    10  GLN10      -0.2867
     19  CB        30.5450   24.9110   18.7410 C.3    10  GLN10       0.0367
     20  CG        30.4950   26.4560   18.8160 C.3    10  GLN10       0.0905
     21  CD        30.2470   27.1330   17.4410 C.2    10  GLN10       0.2608
     22  OE1       30.3920   26.5380   16.3630 O.2    10  GLN10      -0.2717
     23  NE2       29.8480   28.4250   17.5050 N.am   10  GLN10      -0.0878
     24  N         27.5900   28.9120   13.8000 N.3    33  PHE33      -0.1227
     25  CA        27.6080   30.3880   13.7830 C.3    33  PHE33       0.1736
     26  C         29.0080   30.7970   14.2970 C.2    33  PHE33       0.2595
     27  O         29.4620   30.2650   15.3120 O.2    33  PHE33      -0.2718
     28  CB        26.5590   30.9590   14.7320 C.3    33  PHE33       0.0547
     29  CG        25.1570   30.7260   14.3350 C.ar   33  PHE33      -0.0202
     30  CD1       24.4470   31.7010   13.6730 C.ar   33  PHE33      -0.0042
     31  CD2       24.5340   29.5270   14.6360 C.ar   33  PHE33      -0.0042
     32  CE1       23.1110   31.5100   13.3450 C.ar   33  PHE33      -0.0003
     33  CE2       23.1760   29.2900   14.2970 C.ar   33  PHE33      -0.0003
     34  CZ        22.4710   30.2910   13.6450 C.ar   33  PHE33      -0.0000
     35  N         29.6310   31.7260   13.5870 N.am   34  ILE34      -0.1966
     36  CA        30.8810   32.3350   14.0870 C.3    34  ILE34       0.1727
     37  C         30.8170   33.8110   13.8340 C.2    34  ILE34       0.2616
     38  O         30.1270   34.2740   12.9180 O.2    34  ILE34      -0.2715
     39  CB        32.1860   31.7340   13.4850 C.3    34  ILE34       0.0290
     40  CG1       32.3200   32.1760   12.0580 C.3    34  ILE34       0.0022
     41  CG2       32.2550   30.1700   13.6550 C.3    34  ILE34       0.0023
     42  CD1       33.6520   31.8350   11.3620 C.3    34  ILE34       0.0001
     43  N         31.6110   34.5520   14.5970 N.am   35  ASN35      -0.1972
     44  CA        31.6780   36.0070   14.4720 C.3    35  ASN35       0.1688
     45  C         32.8940   36.4150   13.6520 C.2    35  ASN35       0.2292
     46  O         33.5960   35.5660   13.0800 O.2    35  ASN35      -0.2864
     47  CB        31.6490   36.6690   15.8710 C.3    35  ASN35       0.1181
     48  CG        32.8010   36.2800   16.7230 C.2    35  ASN35       0.2629
     49  OD1       33.9120   36.1070   16.2230 O.2    35  ASN35      -0.2716
     50  ND2       32.5670   36.1380   18.0170 N.am   35  ASN35      -0.0877
     51  N         36.7570   35.5740   14.8670 N.3    38  THR38      -0.1218
     52  CA        37.1020   34.1540   14.9420 C.3    38  THR38       0.1862
     53  C         37.8410   33.7550   13.6790 C.2    38  THR38       0.2287
     54  O         37.3200   33.9170   12.5850 O.2    38  THR38      -0.2866
     55  CB        35.8290   33.3470   15.0950 C.3    38  THR38       0.1770
     56  OG1       35.2040   33.7090   16.3400 O.3    38  THR38      -0.2211
     57  CG2       36.0800   31.8460   15.1540 C.3    38  THR38       0.0375
     58  N         40.1800   28.3590   14.6900 N.3    42  TRP42      -0.1241
     59  CA        39.2060   27.9740   15.7170 C.3    42  TRP42       0.1605
     60  C         38.0930   27.1160   15.0980 C.2    42  TRP42       0.2264
     61  O         37.5350   26.2290   15.7630 O.2    42  TRP42      -0.2867
     62  CB        38.6320   29.2520   16.2720 C.3    42  TRP42       0.0550
     63  CG        37.7390   29.0760   17.4680 C.ar   42  TRP42       0.0003
     64  CD1       38.1180   29.1380   18.7800 C.ar   42  TRP42       0.0946
     65  CD2       36.3350   28.8560   17.4520 C.ar   42  TRP42       0.0152
     66  NE1       37.0240   28.9660   19.5890 N.ar   42  TRP42      -0.2442
     67  CE2       35.9210   28.8080   18.8030 C.ar   42  TRP42       0.0810
     68  CE3       35.3740   28.7240   16.4410 C.ar   42  TRP42       0.0012
     69  CZ2       34.5840   28.6350   19.1710 C.ar   42  TRP42       0.0191
     70  CZ3       34.0470   28.5590   16.8180 C.ar   42  TRP42       0.0001
     71  CH2       33.6690   28.5120   18.1690 C.ar   42  TRP42       0.0015
     72  N         28.8260   36.0800   11.2780 N.3    62  GLU62      -0.1245
     73  CA        28.1350   37.2390   11.8680 C.3    62  GLU62       0.1567
     74  C         29.0910   38.3860   12.2090 C.2    62  GLU62       0.2260
     75  O         29.8440   38.2840   13.1740 O.2    62  GLU62      -0.2867
     76  CB        27.4840   36.7980   13.1770 C.3    62  GLU62       0.0388
     77  CG        26.4110   35.7150   13.0000 C.3    62  GLU62       0.1160
     78  CD        25.6640   35.4430   14.2780 C.2    62  GLU62       0.3649
     79  OE1       26.2590   35.4500   15.3810 O.co2  62  GLU62      -0.2457
     80  OE2       24.4260   35.2450   14.1870 O.co2  62  GLU62      -0.2457
     81  N         29.4290   41.0010   14.0710 N.3    64  TRP64      -0.1241
     82  CA        29.1620   41.9330   15.1660 C.3    64  TRP64       0.1605
     83  C         30.2430   42.9830   15.2290 C.2    64  TRP64       0.2264
     84  O         30.0050   44.1010   15.7180 O.2    64  TRP64      -0.2867
     85  CB        29.1440   41.1750   16.4970 C.3    64  TRP64       0.0550
     86  CG        28.0980   40.0880   16.5350 C.ar   64  TRP64       0.0003
     87  CD1       28.2770   38.7300   16.2410 C.ar   64  TRP64       0.0946
     88  CD2       26.7140   40.2240   16.8940 C.ar   64  TRP64       0.0152
     89  NE1       27.0610   38.0560   16.3740 N.ar   64  TRP64      -0.2442
     90  CE2       26.1100   38.9500   16.8010 C.ar   64  TRP64       0.0810
     91  CE3       25.9250   41.3090   17.2640 C.ar   64  TRP64       0.0012
     92  CZ2       24.7500   38.7500   17.0850 C.ar   64  TRP64       0.0191
     93  CZ3       24.5520   41.1020   17.5550 C.ar   64  TRP64       0.0001
     94  CH2       23.9930   39.8300   17.4430 C.ar   64  TRP64       0.0015
     95  N         23.6250   37.7660    7.6050 N.3   100  HIS100     -0.1241
     96  CA        22.2860   37.2290    7.4570 C.3   100  HIS100      0.1621
     97  C         21.1910   38.1260    8.0510 C.2   100  HIS100      0.2264
     98  O         21.4620   39.0530    8.8330 O.2   100  HIS100     -0.2867
     99  CB        22.1720   35.7970    7.9560 C.3   100  HIS100      0.0745
    100  CG        22.0250   35.6390    9.4340 C.ar  100  HIS100      0.0817
    101  ND1       23.0090   35.9580   10.3480 N.ar  100  HIS100     -0.2268
    102  CD2       21.0040   35.0990   10.1560 C.ar  100  HIS100      0.1154
    103  CE1       22.6010   35.6480   11.5710 C.ar  100  HIS100      0.1986
    104  NE2       21.3840   35.1230   11.4780 N.ar  100  HIS100     -0.2212
    105  N         17.5710   43.4900   13.9580 N.3   106  TRP106     -0.1227
    106  CA        18.1780   43.0540   15.2220 C.3   106  TRP106      0.1737
    107  C         19.6780   42.8680   15.1330 C.2   106  TRP106      0.2595
    108  O         20.3160   42.7990   16.1980 O.2   106  TRP106     -0.2718
    109  CB        17.4830   41.8060   15.8000 C.3   106  TRP106      0.0564
    110  CG        17.2500   40.7140   14.8070 C.ar  106  TRP106      0.0003
    111  CD1       18.0930   39.6690   14.4770 C.ar  106  TRP106      0.0946
    112  CD2       16.0490   40.5260   14.0400 C.ar  106  TRP106      0.0152
    113  NE1       17.4770   38.8560   13.5350 N.ar  106  TRP106     -0.2442
    114  CE2       16.2320   39.3600   13.2460 C.ar  106  TRP106      0.0810
    115  CE3       14.8150   41.2330   13.9750 C.ar  106  TRP106      0.0012
    116  CZ2       15.2420   38.8870   12.3850 C.ar  106  TRP106      0.0191
    117  CZ3       13.8250   40.7540   13.1000 C.ar  106  TRP106      0.0001
    118  CH2       14.0520   39.6010   12.3200 C.ar  106  TRP106      0.0015
    119  N         20.2870   42.7940   13.9540 N.am  107  TYR107     -0.1976
    120  CA        21.7170   42.6650   13.8600 C.3   107  TYR107      0.1639
    121  C         22.3180   43.9950   13.4000 C.2   107  TYR107      0.2290
    122  O         21.6860   44.7680   12.6550 O.2   107  TYR107     -0.2864
    123  CB        22.0860   41.6030   12.8440 C.3   107  TYR107      0.0560
    124  CG        21.7320   40.1970   13.2840 C.ar  107  TYR107     -0.0198
    125  CD1       22.2110   39.6840   14.4760 C.ar  107  TYR107     -0.0009
    126  CD2       20.9610   39.3650   12.4740 C.ar  107  TYR107     -0.0009
    127  CE1       21.9170   38.3560   14.8720 C.ar  107  TYR107      0.0417
    128  CE2       20.6750   38.0600   12.8500 C.ar  107  TYR107      0.0417
    129  CZ        21.1420   37.5840   14.0560 C.ar  107  TYR107      0.1957
    130  OH        20.8410   36.2590   14.3930 O.3   107  TYR107     -0.2866
    131  N         14.8500   32.3150    6.7340 N.3   175  ASP175     -0.1239
    132  CA        14.7380   31.8760    8.1050 C.3   175  ASP175      0.1674
    133  C         13.3820   32.2690    8.6390 C.2   175  ASP175      0.2266
    134  O         12.8190   33.2860    8.2280 O.2   175  ASP175     -0.2867
    135  CB        15.8250   32.5650    8.8860 C.3   175  ASP175      0.1410
    136  CG        17.2430   32.1200    8.4320 C.2   175  ASP175      0.3668
    137  OD1       17.3150   31.1430    7.6300 O.co2 175  ASP175     -0.2456
    138  OD2       18.1420   32.7440    8.9060 O.co2 175  ASP175     -0.2456
    139  N         10.2330   31.3020   12.0670 N.3   177  TYR177     -0.1241
    140  CA         9.8090   30.5080   13.2070 C.3   177  TYR177      0.1605
    141  C          8.3390   30.6130   13.4330 C.2   177  TYR177      0.2264
    142  O          7.7330   31.6730   13.2330 O.2   177  TYR177     -0.2867
    143  CB        10.4960   30.9900   14.5070 C.3   177  TYR177      0.0534
    144  CG        11.9530   30.7140   14.4910 C.ar  177  TYR177     -0.0201
    145  CD1       12.4790   29.5390   15.0550 C.ar  177  TYR177     -0.0009
    146  CD2       12.8140   31.5790   13.8730 C.ar  177  TYR177     -0.0009
    147  CE1       13.8790   29.2650   15.0180 C.ar  177  TYR177      0.0417
    148  CE2       14.2050   31.2860   13.7520 C.ar  177  TYR177      0.0417
    149  CZ        14.7170   30.1600   14.3610 C.ar  177  TYR177      0.1957
    150  OH        16.0850   29.9340   14.2790 O.3   177  TYR177     -0.2866
    151  N          6.5400   31.0750   16.4610 N.3   179  TRP179     -0.1241
    152  CA         6.7340   31.4630   17.8470 C.3   179  TRP179      0.1605
    153  C          5.6010   30.9890   18.7410 C.2   179  TRP179      0.2264
    154  O          5.7090   31.0540   19.9840 O.2   179  TRP179     -0.2867
    155  CB         6.8350   32.9850   17.9360 C.3   179  TRP179      0.0550
    156  CG         8.0420   33.5500   17.2020 C.ar  179  TRP179      0.0003
    157  CD1        8.1140   33.8970   15.8840 C.ar  179  TRP179      0.0946
    158  CD2        9.3330   33.8110   17.7630 C.ar  179  TRP179      0.0152
    159  NE1        9.3950   34.3460   15.5860 N.ar  179  TRP179     -0.2442
    160  CE2       10.1480   34.3350   16.7350 C.ar  179  TRP179      0.0810
    161  CE3        9.8720   33.6740   19.0470 C.ar  179  TRP179      0.0012
    162  CZ2       11.4740   34.6930   16.9550 C.ar  179  TRP179      0.0191
    163  CZ3       11.1820   34.0490   19.2480 C.ar  179  TRP179      0.0001
    164  CH2       11.9650   34.5250   18.2010 C.ar  179  TRP179      0.0015
    165  N         17.3580   28.4610    8.9910 N.3   214  GLU214     -0.1245
    166  CA        17.0250   28.4670   10.4060 C.3   214  GLU214      0.1567
    167  C         15.5340   28.4160   10.5230 C.2   214  GLU214      0.2260
    168  O         14.8800   29.3160   10.0350 O.2   214  GLU214     -0.2867
    169  CB        17.4120   29.8000   11.0470 C.3   214  GLU214      0.0388
    170  CG        18.7530   29.9250   11.6850 C.3   214  GLU214      0.1160
    171  CD        18.9020   31.3230   12.2870 C.2   214  GLU214      0.3649
    172  OE1       18.3900   31.5530   13.4810 O.co2 214  GLU214     -0.2457
    173  OE2       19.4470   32.2060   11.5280 O.co2 214  GLU214     -0.2457
    174  N         16.6920   24.7280   13.7040 N.3   248  PHE248     -0.1241
    175  CA        17.4240   25.4430   14.7540 C.3   248  PHE248      0.1605
    176  C         17.1130   24.7580   16.0900 C.2   248  PHE248      0.2264
    177  O         16.0770   25.0450   16.6910 O.2   248  PHE248     -0.2867
    178  CB        16.9550   26.8930   14.8140 C.3   248  PHE248      0.0534
    179  CG        17.7950   27.7490   15.7630 C.ar  248  PHE248     -0.0203
    180  CD1       19.0410   28.2110   15.3830 C.ar  248  PHE248     -0.0042
    181  CD2       17.2660   28.1600   16.9860 C.ar  248  PHE248     -0.0042
    182  CE1       19.7770   29.0070   16.2310 C.ar  248  PHE248     -0.0003
    183  CE2       17.9900   28.9620   17.8130 C.ar  248  PHE248     -0.0003
    184  CZ        19.2390   29.3750   17.4670 C.ar  248  PHE248     -0.0000
    185  N         17.6860   24.4770   19.6490 N.3   250  GLU250     -0.1245
    186  CA        18.2430   25.0430   20.8840 C.3   250  GLU250      0.1567
    187  C         17.1050   25.4630   21.7660 C.2   250  GLU250      0.2260
    188  O         16.1130   26.0130   21.2620 O.2   250  GLU250     -0.2867
    189  CB        19.1130   26.2790   20.5680 C.3   250  GLU250      0.0388
    190  CG        20.0230   26.7060   21.7390 C.3   250  GLU250      0.1160
    191  CD        20.9220   27.8680   21.4330 C.2   250  GLU250      0.3649
    192  OE1       21.4070   28.0250   20.2990 O.co2 250  GLU250     -0.2457
    193  OE2       21.1630   28.6350   22.3840 O.co2 250  GLU250     -0.2457
    194  N         16.0830   28.1280   23.7060 N.3   252  LYS252     -0.1231
    195  CA        16.5910   29.4950   23.6830 C.3   252  LYS252      0.1693
    196  C         15.4270   30.4800   23.9180 C.2   252  LYS252      0.2591
    197  O         14.8960   30.5210   25.0390 O.2   252  LYS252     -0.2718
    198  CB        17.3570   29.7690   22.3790 C.3   252  LYS252      0.0285
    199  CG        18.2380   31.0070   22.4390 C.3   252  LYS252      0.0035
    200  CD        18.9590   31.2260   21.1160 C.3   252  LYS252      0.0206
    201  CE        19.8080   32.4650   21.2320 C.3   252  LYS252      0.1093
    202  NZ        20.5400   32.6880   19.9260 N.3   252  LYS252     -0.1314
    203  N         14.9920   31.2410   22.9170 N.am  253  GLU253     -0.1979
    204  CA        13.8610   32.1730   23.1090 C.3   253  GLU253      0.1602
    205  C         12.6350   31.3940   23.5610 C.2   253  GLU253      0.2287
    206  O         11.7940   31.8820   24.3520 O.2   253  GLU253     -0.2864
    207  CB        13.5430   32.9600   21.8420 C.3   253  GLU253      0.0415
    208  CG        14.7180   33.8300   21.3440 C.3   253  GLU253      0.1163
    209  CD        15.6750   33.0900   20.3910 C.2   253  GLU253      0.3649
    210  OE1       15.7140   31.8230   20.3260 O.co2 253  GLU253     -0.2457
    211  OE2       16.4370   33.8020   19.6600 O.co2 253  GLU253     -0.2457
    212  N         12.8560   25.4330   21.0530 N.3   256  TRP256     -0.1241
    213  CA        12.7890   25.1340   19.6350 C.3   256  TRP256      0.1605
    214  C         13.1820   23.6870   19.3340 C.2   256  TRP256      0.2264
    215  O         12.9500   23.1970   18.2320 O.2   256  TRP256     -0.2867
    216  CB        13.8180   25.9860   18.9130 C.3   256  TRP256      0.0550
    217  CG        13.6460   27.4540   19.0550 C.ar  256  TRP256      0.0003
    218  CD1       14.5860   28.3360   19.5060 C.ar  256  TRP256      0.0946
    219  CD2       12.5040   28.2580   18.6300 C.ar  256  TRP256      0.0152
    220  NE1       14.1200   29.6340   19.3990 N.ar  256  TRP256     -0.2442
    221  CE2       12.8460   29.6160   18.8700 C.ar  256  TRP256      0.0810
    222  CE3       11.2280   27.9580   18.1000 C.ar  256  TRP256      0.0012
    223  CZ2       11.9510   30.6860   18.5740 C.ar  256  TRP256      0.0191
    224  CZ3       10.3660   29.0130   17.7740 C.ar  256  TRP256      0.0001
    225  CH2       10.7210   30.3580   18.0280 C.ar  256  TRP256      0.0015
@<TRIPOS>BOND
     1   131   132    1
     2    96    95    1
     3    96    99    1
     4    96    97    1
     5   137   136   ar
     6    99   100    1
     7    97    98    2
     8   132   133    1
     9   132   135    1
    10   134   133    2
    11   136   135    1
    12   136   138   ar
    13   165   166    1
    14   100   102   ar
    15   100   101   ar
    16   168   167    2
    17   102   104   ar
    18   101   103   ar
    19   166   167    1
    20   166   169    1
    21   169   170    1
    22    72    73    1
    23    42    40    1
    24   104   103   ar
    25   173   171   ar
    26   170   171    1
    27    73    74    1
    28    73    76    1
    29    40    39    1
    30   139   140    1
    31    74    75    2
    32   171   172   ar
    33   118   116   ar
    34   118   117   ar
    35   116   114   ar
    36   126   128   ar
    37   126   124   ar
    38    54    53    2
    39   122   121    2
    40   123   124    1
    41   123   120    1
    42   128   129   ar
    43    38    37    2
    44    77    76    1
    45    77    78    1
    46    46    45    2
    47   117   115   ar
    48   140   141    1
    49   140   143    1
    50     1     2    1
    51   142   141    2
    52   114   113   ar
    53   114   112   ar
    54   124   125   ar
    55    32    34   ar
    56    32    30   ar
    57   121   120    1
    58    39    41    1
    59    39    36    1
    60   113   111   ar
    61    35    36    1
    62    35    26   am
    63    34    33   ar
    64    45    44    1
    65    30    29   ar
    66    53    52    1
    67   174   175    1
    68   148   146   ar
    69   148   149   ar
    70    25    24    1
    71    25    26    1
    72    25    28    1
    73    37    36    1
    74    37    43   am
    75   120   119    1
    76   146   144   ar
    77   119   107   am
    78   105   106    1
    79   115   112   ar
    80   112   110   ar
    81   129   130    1
    82   129   127   ar
    83    81    82    1
    84    80    78   ar
    85    78    79   ar
    86   150   149    1
    87    33    31   ar
    88    26    27    2
    89     2     5    1
    90     2     3    1
    91    29    31   ar
    92    29    28    1
    93   149   147   ar
    94    44    43    1
    95    44    47    1
    96   125   127   ar
    97   111   110   ar
    98   144   143    1
    99   144   145   ar
   100     5     6    1
   101    58    59    1
   102   175   178    1
   103   175   176    1
   104   110   109    1
   105   178   179    1
   106    51    52    1
   107    52    55    1
   108   147   145   ar
   109    55    57    1
   110    55    56    1
   111    60    59    1
   112    60    61    2
   113   107   106    1
   114   107   108    2
   115    82    83    1
   116    82    85    1
   117   106   109    1
   118    83    84    2
   119   180   179   ar
   120   180   182   ar
   121     3     4    2
   122   159   157   ar
   123   159   160   ar
   124    59    62    1
   125   179   181   ar
   126    47    48    1
   127    11     8   ar
   128    11    13   ar
   129   157   156   ar
   130     6     8   ar
   131     6     7   ar
   132   176   177    2
   133    49    48    2
   134   182   184   ar
   135    87    89   ar
   136    87    86   ar
   137    62    63    1
   138    22    21    2
   139    89    90   ar
   140    68    70   ar
   141    68    65   ar
   142     8    10   ar
   143   151   152    1
   144    85    86    1
   145    86    88   ar
   146    13    14   ar
   147    48    50   am
   148   160   162   ar
   149   160   158   ar
   150    90    88   ar
   151    90    92   ar
   152    70    71   ar
   153    88    91   ar
   154   162   164   ar
   155   181   183   ar
   156     7     9   ar
   157    92    94   ar
   158   156   158   ar
   159   156   155    1
   160    91    93   ar
   161    21    23   am
   162    21    20    1
   163    94    93   ar
   164    65    63   ar
   165    65    67   ar
   166   184   183   ar
   167    63    64   ar
   168   158   161   ar
   169   224   225   ar
   170   224   222   ar
   171    10     9   ar
   172    10    12   ar
   173   152   155    1
   174   152   153    1
   175    14    12   ar
   176    17    16    1
   177    17    18    2
   178   225   223   ar
   179   222   219   ar
   180    71    69   ar
   181   164   163   ar
   182   215   214    2
   183    16    19    1
   184    16    15    1
   185   223   221   ar
   186   219   221   ar
   187   219   217   ar
   188   153   154    2
   189    19    20    1
   190    64    66   ar
   191    67    69   ar
   192    67    66   ar
   193   221   220   ar
   194   216   217    1
   195   216   213    1
   196   161   163   ar
   197   217   218   ar
   198   214   213    1
   199   220   218   ar
   200   213   212    1
   201   185   186    1
   202   211   209   ar
   203   202   201    1
   204   192   191   ar
   205   210   209   ar
   206   209   208    1
   207   189   186    1
   208   189   190    1
   209   186   187    1
   210   200   201    1
   211   200   199    1
   212   188   187    2
   213   208   207    1
   214   191   190    1
   215   191   193   ar
   216   207   204    1
   217   198   199    1
   218   198   195    1
   219   203   204    1
   220   203   196   am
   221   204   205    1
   222   205   206    2
   223   195   194    1
   224   195   196    1
   225   196   197    2
