@<TRIPOS>MOLECULE
tmp/2civA04.pdb
 92 89 0 0 0
SMALL
GASTEIGER

@<TRIPOS>ATOM
      1  N          4.6030   33.3390    9.5630 N.3   208  ASP208     -0.1239
      2  CA         5.3890   32.7390   10.6650 C.3   208  ASP208      0.1674
      3  C          5.4530   31.2130   10.5880 C.2   208  ASP208      0.2266
      4  O          6.5140   30.6220   10.7840 O.2   208  ASP208     -0.2867
      5  CB         4.9950   33.2410   12.0670 C.3   208  ASP208      0.1410
      6  CG         3.5270   33.0110   12.4340 C.2   208  ASP208      0.3668
      7  OD1        2.7020   32.5090   11.6290 O.co2 208  ASP208     -0.2456
      8  OD2        3.1950   33.3740   13.5890 O.co2 208  ASP208     -0.2456
      9  N          7.8250   30.3890    7.6550 N.3   211  LYS211     -0.1231
     10  CA         9.2160   30.6300    8.0400 C.3   211  LYS211      0.1693
     11  C          9.7300   29.5610    9.0050 C.2   211  LYS211      0.2592
     12  O         10.8760   29.1220    8.8910 O.2   211  LYS211     -0.2718
     13  CB         9.3690   32.0240    8.6580 C.3   211  LYS211      0.0285
     14  CG        10.7900   32.5650    8.5880 C.3   211  LYS211      0.0035
     15  CD        10.9140   33.9360    9.2800 C.3   211  LYS211      0.0206
     16  CE        12.3830   34.3730    9.2850 C.3   211  LYS211      0.1093
     17  NZ        12.5690   35.6850    9.9830 N.3   211  LYS211     -0.1314
     18  N          8.8770   29.1430    9.9410 N.am  212  TYR212     -0.1976
     19  CA         9.2500   28.0910   10.8990 C.3   212  TYR212      0.1639
     20  C          9.5300   26.7860   10.1510 C.2   212  TYR212      0.2290
     21  O         10.5910   26.1620   10.3180 O.2   212  TYR212     -0.2864
     22  CB         8.1400   27.9070   11.9410 C.3   212  TYR212      0.0560
     23  CG         8.5110   27.0320   13.1290 C.ar  212  TYR212     -0.0198
     24  CD1        8.8010   25.6660   12.9720 C.ar  212  TYR212     -0.0009
     25  CD2        8.5660   27.5820   14.4190 C.ar  212  TYR212     -0.0009
     26  CE1        9.1470   24.8660   14.0970 C.ar  212  TYR212      0.0417
     27  CE2        8.9050   26.8110   15.5320 C.ar  212  TYR212      0.0417
     28  CZ         9.1770   25.4600   15.3690 C.ar  212  TYR212      0.1957
     29  OH         9.5120   24.7260   16.4810 O.3   212  TYR212     -0.2866
     30  N         12.7550   27.2420    7.8170 N.3   215  THR215     -0.1203
     31  CA        14.0190   27.5220    8.5070 C.3   215  THR215      0.1994
     32  C         14.4030   26.3520    9.4080 C.2   215  THR215      0.2617
     33  O         15.5720   25.9690    9.4980 O.2   215  THR215     -0.2717
     34  CB        13.9100   28.7890    9.3840 C.3   215  THR215      0.1784
     35  OG1       13.5730   29.9150    8.5710 O.3   215  THR215     -0.2211
     36  CG2       15.2510   29.0590   10.1260 C.3   215  THR215      0.0376
     37  N         13.4150   25.7920   10.0870 N.am  216  ASN216     -0.1974
     38  CA        13.6790   24.7630   11.0780 C.3   216  ASN216      0.1688
     39  C         13.5810   23.3370   10.5370 C.2   216  ASN216      0.2292
     40  O         14.0910   22.4120   11.1580 O.2   216  ASN216     -0.2864
     41  CB        12.7590   24.9750   12.2800 C.3   216  ASN216      0.1181
     42  CG        13.1880   26.1570   13.1220 C.2   216  ASN216      0.2629
     43  OD1       14.3680   26.5470   13.1000 O.2   216  ASN216     -0.2716
     44  ND2       12.2260   26.7490   13.8490 N.am  216  ASN216     -0.0877
     45  N          4.2320   25.0310   17.8940 N.3   222  HIS222     -0.1226
     46  CA         4.3040   26.0600   18.9560 C.3   222  HIS222      0.1752
     47  C          3.5910   27.3590   18.5600 C.2   222  HIS222      0.2595
     48  O          3.2910   28.2050   19.4200 O.2   222  HIS222     -0.2718
     49  CB         5.7390   26.4240   19.2970 C.3   222  HIS222      0.0759
     50  CG         6.5800   25.2820   19.7580 C.ar  222  HIS222      0.0818
     51  ND1        6.0590   24.1600   20.3660 N.ar  222  HIS222     -0.2268
     52  CD2        7.9260   25.1110   19.7330 C.ar  222  HIS222      0.1154
     53  CE1        7.0460   23.3330   20.6690 C.ar  222  HIS222      0.1986
     54  NE2        8.1860   23.8850   20.2920 N.ar  222  HIS222     -0.2212
     55  N          3.3700   27.5310   17.2580 N.am  223  LEU223     -0.1980
     56  CA         2.6820   28.7060   16.7270 C.3   223  LEU223      0.1596
     57  C          1.2130   28.4130   16.4140 C.2   223  LEU223      0.2287
     58  O          0.5390   29.2030   15.7360 O.2   223  LEU223     -0.2864
     59  CB         3.4140   29.1980   15.4630 C.3   223  LEU223      0.0297
     60  CG         4.8460   29.7380   15.6200 C.3   223  LEU223      0.0022
     61  CD1        5.5090   30.0250   14.2580 C.3   223  LEU223      0.0001
     62  CD2        4.8450   30.9960   16.4740 C.3   223  LEU223      0.0001
     63  N         18.1710   29.3840   16.9610 N.3   292  PRO292     -0.2102
     64  CA        18.7990   28.3530   17.8060 C.3   292  PRO292      0.1504
     65  C         18.7160   26.9290   17.2390 C.2   292  PRO292      0.2576
     66  O         17.9520   26.6770   16.2990 O.2   292  PRO292     -0.2718
     67  CB        17.9580   28.4140   19.0760 C.3   292  PRO292      0.0282
     68  CG        16.5920   28.7420   18.5710 C.3   292  PRO292      0.0208
     69  CD        16.7610   29.5930   17.3440 C.3   292  PRO292      0.0893
     70  N         19.4850   26.0110   17.8280 N.am  293  THR293     -0.1939
     71  CA        19.2850   24.5750   17.5860 C.3   293  THR293      0.2028
     72  C         17.9420   24.1530   18.1900 C.2   293  THR293      0.2642
     73  O         17.4350   24.7900   19.1130 O.2   293  THR293     -0.2714
     74  CB        20.3930   23.7060   18.2110 C.3   293  THR293      0.1808
     75  OG1       20.3520   23.8490   19.6320 O.3   293  THR293     -0.2208
     76  CG2       21.7810   24.0980   17.6890 C.3   293  THR293      0.0379
     77  N         17.3590   23.0870   17.6550 N.am  294  LEU294     -0.1977
     78  CA        16.0360   22.6760   18.0790 C.3   294  LEU294      0.1596
     79  C         16.0760   21.5360   19.0930 C.2   294  LEU294      0.2287
     80  O         16.9110   20.6330   18.9990 O.2   294  LEU294     -0.2864
     81  CB        15.1820   22.2630   16.8700 C.3   294  LEU294      0.0297
     82  CG        14.9940   23.2140   15.6650 C.3   294  LEU294      0.0022
     83  CD1       13.7900   22.7170   14.8370 C.3   294  LEU294      0.0001
     84  CD2       14.8050   24.6640   16.0430 C.3   294  LEU294      0.0001
     85  N         10.4750   20.5940   19.1780 N.3   298  ASP298     -0.1239
     86  CA        10.4260   21.7920   18.3220 C.3   298  ASP298      0.1674
     87  C         10.2880   21.4460   16.8330 C.2   298  ASP298      0.2266
     88  O         10.1860   22.3590   15.9850 O.2   298  ASP298     -0.2867
     89  CB        11.6870   22.6450   18.5070 C.3   298  ASP298      0.1410
     90  CG        11.8310   23.2090   19.9230 C.2   298  ASP298      0.3668
     91  OD1       10.8020   23.4390   20.5990 O.co2 298  ASP298     -0.2456
     92  OD2       12.9880   23.4620   20.3190 O.co2 298  ASP298     -0.2456
@<TRIPOS>BOND
     1     9    10    1
     2    30    31    1
     3    10    13    1
     4    10    11    1
     5    31    34    1
     6    31    32    1
     7    35    34    1
     8    14    13    1
     9    14    15    1
    10    12    11    2
    11    11    18   am
    12    15    16    1
    13    16    17    1
    14    34    36    1
    15    32    33    2
    16    32    37   am
    17     1     2    1
    18    18    19    1
    19    37    38    1
    20    20    21    2
    21    20    19    1
    22    39    38    1
    23    39    40    2
    24     3     2    1
    25     3     4    2
    26     2     5    1
    27    19    22    1
    28    38    41    1
    29     7     6   ar
    30    22    23    1
    31     5     6    1
    32    41    42    1
    33     6     8   ar
    34    24    23   ar
    35    24    26   ar
    36    43    42    2
    37    42    44   am
    38    23    25   ar
    39    26    28   ar
    40    61    60    1
    41    25    27   ar
    42    83    82    1
    43    28    27   ar
    44    28    29    1
    45    59    60    1
    46    59    56    1
    47    60    62    1
    48    82    84    1
    49    82    81    1
    50    58    57    2
    51    88    87    2
    52    66    65    2
    53    57    56    1
    54    56    55    1
    55    87    86    1
    56    81    78    1
    57    63    69    1
    58    63    64    1
    59    65    64    1
    60    65    70   am
    61    55    47   am
    62    69    68    1
    63    71    70    1
    64    71    72    1
    65    71    74    1
    66    77    78    1
    67    77    72   am
    68    76    74    1
    69    64    67    1
    70    45    46    1
    71    78    79    1
    72    72    73    2
    73    74    75    1
    74    86    89    1
    75    86    85    1
    76    89    90    1
    77    47    46    1
    78    47    48    2
    79    68    67    1
    80    46    49    1
    81    80    79    2
    82    49    50    1
    83    52    50   ar
    84    52    54   ar
    85    50    51   ar
    86    90    92   ar
    87    90    91   ar
    88    54    53   ar
    89    51    53   ar
