@<TRIPOS>MOLECULE
tmp/2cixA00.pdb
 85 78 0 0 0
SMALL
GASTEIGER

@<TRIPOS>ATOM
      1  N         13.8850   19.3770   -0.5590 N.3    29  CYS29      -0.1235
      2  CA        12.4890   19.5570   -0.1710 C.3    29  CYS29       0.1677
      3  C         12.3390   19.7710    1.3300 C.2    29  CYS29       0.2270
      4  O         12.7370   18.9200    2.1220 O.2    29  CYS29      -0.2867
      5  CB        11.6750   18.3120   -0.5860 C.3    29  CYS29       0.0956
      6  SG         9.9480   18.3640   -0.1690 S.3    29  CYS29      -0.0801
      7  N         -1.9910   14.0140   -3.5750 N.3    67  VAL67      -0.1245
      8  CA        -1.1620   15.2170   -3.6880 C.3    67  VAL67       0.1561
      9  C          0.2470   14.8510   -4.1560 C.2    67  VAL67       0.2260
     10  O          0.9440   15.6660   -4.7880 O.2    67  VAL67      -0.2867
     11  CB        -1.0990   15.9450   -2.3080 C.3    67  VAL67       0.0252
     12  CG1       -0.1280   17.1230   -2.3290 C.3    67  VAL67       0.0019
     13  CG2       -2.4900   16.4320   -1.8940 C.3    67  VAL67       0.0019
     14  N          2.1080   12.2520   -8.5870 N.3    70  LEU70      -0.1231
     15  CA         3.0690   12.6460   -9.6280 C.3    70  LEU70       0.1693
     16  C          4.4570   12.8180   -9.0280 C.2    70  LEU70       0.2591
     17  O          5.4630   12.4200   -9.6340 O.2    70  LEU70      -0.2718
     18  CB         2.6480   13.9430  -10.3590 C.3    70  LEU70       0.0284
     19  CG         3.5320   14.3420  -11.5630 C.3    70  LEU70       0.0019
     20  CD1        3.8270   13.1620  -12.5090 C.3    70  LEU70       0.0001
     21  CD2        2.8880   15.4980  -12.3440 C.3    70  LEU70       0.0001
     22  N          4.5050   13.3790   -7.8190 N.am   71  ALA71      -0.1980
     23  CA         5.7550   13.5460   -7.0940 C.3    71  ALA71       0.1597
     24  C          6.4950   12.2270   -6.9310 C.2    71  ALA71       0.2287
     25  O          7.7180   12.1580   -7.1080 O.2    71  ALA71      -0.2864
     26  CB         5.4840   14.1630   -5.7210 C.3    71  ALA71       0.0319
     27  N          7.8420   11.0570  -10.3420 N.3    74  ASN74      -0.1240
     28  CA         9.0220   11.8180  -10.6930 C.3    74  ASN74       0.1653
     29  C         10.2400   11.5190   -9.8240 C.2    74  ASN74       0.2266
     30  O         11.3560   11.5390  -10.3190 O.2    74  ASN74      -0.2867
     31  CB         8.7010   13.3090  -10.7570 C.3    74  ASN74       0.1155
     32  CG         7.9190   13.6800  -12.0210 C.2    74  ASN74       0.2627
     33  OD1        7.9570   12.9650  -13.0230 O.2    74  ASN74      -0.2716
     34  ND2        7.2160   14.7970  -11.9740 N.am   74  ASN74      -0.0877
     35  N         13.8910   17.2690  -11.4750 N.3   103  PHE103     -0.1241
     36  CA        12.7980   17.5050  -10.5410 C.3   103  PHE103      0.1605
     37  C         13.1230   18.8330   -9.7970 C.2   103  PHE103      0.2264
     38  O         12.2990   19.7590   -9.7360 O.2   103  PHE103     -0.2867
     39  CB        12.7310   16.3160   -9.5730 C.3   103  PHE103      0.0534
     40  CG        11.4030   16.1520   -8.8580 C.ar  103  PHE103     -0.0203
     41  CD1       10.5600   17.2350   -8.6210 C.ar  103  PHE103     -0.0042
     42  CD2       11.0420   14.9030   -8.3680 C.ar  103  PHE103     -0.0042
     43  CE1        9.3340   17.0640   -7.9260 C.ar  103  PHE103     -0.0003
     44  CE2        9.8450   14.7180   -7.6760 C.ar  103  PHE103     -0.0003
     45  CZ         8.9870   15.7910   -7.4510 C.ar  103  PHE103     -0.0000
     46  N          6.6260   23.1140  -12.2030 N.3   179  ILE179     -0.1245
     47  CA         7.0520   22.4410  -10.9720 C.3   179  ILE179      0.1561
     48  C          6.9840   23.4070   -9.7910 C.2   179  ILE179      0.2260
     49  O          6.4540   23.0710   -8.7290 O.2   179  ILE179     -0.2867
     50  CB         8.4600   21.8270  -11.0890 C.3   179  ILE179      0.0252
     51  CG1        8.5400   20.8650  -12.2720 C.3   179  ILE179      0.0019
     52  CG2        8.8600   21.0740   -9.7880 C.3   179  ILE179      0.0019
     53  CD1        9.9860   20.4100  -12.5830 C.3   179  ILE179      0.0001
     54  N          3.2860   24.0230   -8.5190 N.3   182  VAL182     -0.1231
     55  CA         2.7350   22.9560   -7.6870 C.3   182  VAL182      0.1692
     56  C          3.2620   23.1990   -6.2540 C.2   182  VAL182      0.2591
     57  O          2.5020   23.0930   -5.2890 O.2   182  VAL182     -0.2718
     58  CB         3.1330   21.5400   -8.1550 C.3   182  VAL182      0.0266
     59  CG1        2.7210   20.4990   -7.0870 C.3   182  VAL182      0.0020
     60  CG2        2.4390   21.2120   -9.4610 C.3   182  VAL182      0.0020
     61  N          4.5410   23.5410   -6.1360 N.am  183  GLU183     -0.1979
     62  CA         5.1190   23.8360   -4.8040 C.3   183  GLU183      0.1602
     63  C          4.4990   25.0770   -4.1890 C.2   183  GLU183      0.2287
     64  O          4.3260   25.1420   -2.9800 O.2   183  GLU183     -0.2864
     65  CB         6.6490   23.9320   -4.8790 C.3   183  GLU183      0.0415
     66  CG         7.2380   22.5470   -5.1390 C.3   183  GLU183      0.1163
     67  CD         8.4850   22.5380   -5.9780 C.2   183  GLU183      0.3649
     68  OE1        9.0220   23.6010   -6.3360 O.co2 183  GLU183     -0.2457
     69  OE2        8.9530   21.4240   -6.2640 O.co2 183  GLU183     -0.2457
     70  N          1.5250   23.6570   -2.8030 N.3   186  PHE186     -0.1241
     71  CA         1.9370   22.9200   -1.5740 C.3   186  PHE186      0.1605
     72  C          2.0230   23.8510   -0.3680 C.2   186  PHE186      0.2264
     73  O          1.6470   23.4710    0.7520 O.2   186  PHE186     -0.2867
     74  CB         3.3200   22.2840   -1.7530 C.3   186  PHE186      0.0534
     75  CG         3.3490   21.0340   -2.6060 C.ar  186  PHE186     -0.0203
     76  CD1        2.1770   20.3850   -3.0030 C.ar  186  PHE186     -0.0042
     77  CD2        4.5780   20.5090   -3.0190 C.ar  186  PHE186     -0.0042
     78  CE1        2.2390   19.1880   -3.7750 C.ar  186  PHE186     -0.0003
     79  CE2        4.6470   19.3270   -3.7950 C.ar  186  PHE186     -0.0003
     80  CZ         3.4610   18.6720   -4.1610 C.ar  186  PHE186     -0.0000
     81  N          1.8780   20.1160  -14.8160 N.3   267  ALA267     -0.1245
     82  CA         3.0340   19.2770  -14.5420 C.3   267  ALA267      0.1562
     83  C          2.7500   17.8800  -15.0700 C.2   267  ALA267      0.2260
     84  O          1.6450   17.3660  -14.8770 O.2   267  ALA267     -0.2867
     85  CB         3.3110   19.2290  -13.0080 C.3   267  ALA267      0.0290
@<TRIPOS>BOND
     1    83    84    2
     2    83    82    1
     3    81    82    1
     4    82    85    1
     5    33    32    2
     6    53    51    1
     7    20    19    1
     8    21    19    1
     9    51    50    1
    10    46    47    1
    11    32    34   am
    12    32    31    1
    13    19    18    1
    14    35    36    1
    15    50    47    1
    16    50    52    1
    17    47    48    1
    18    31    28    1
    19    28    27    1
    20    28    29    1
    21    36    37    1
    22    36    39    1
    23    18    15    1
    24    30    29    2
    25    37    38    2
    26    48    49    2
    27    17    16    2
    28    15    16    1
    29    15    14    1
    30    39    40    1
    31    60    58    1
    32    16    22   am
    33    40    41   ar
    34    40    42   ar
    35    41    43   ar
    36    54    55    1
    37    42    44   ar
    38    58    55    1
    39    58    59    1
    40    43    45   ar
    41    22    23    1
    42    55    56    1
    43    44    45   ar
    44    25    24    2
    45    23    24    1
    46    23    26    1
    47    68    67   ar
    48    69    67   ar
    49    56    61   am
    50    56    57    2
    51    61    62    1
    52    67    66    1
    53    66    65    1
    54    65    62    1
    55    62    63    1
    56    10     9    2
    57    63    64    2
    58    80    79   ar
    59    80    78   ar
    60     9     8    1
    61    79    77   ar
    62    78    76   ar
    63     8     7    1
    64     8    11    1
    65    77    75   ar
    66    76    75   ar
    67    70    71    1
    68    75    74    1
    69    12    11    1
    70    11    13    1
    71    74    71    1
    72    71    72    1
    73     5     2    1
    74     5     6    1
    75     1     2    1
    76    72    73    2
    77     2     3    1
    78     3     4    2
