@<TRIPOS>MOLECULE
tmp/2cixA03.pdb
 137 130 0 0 0
SMALL
GASTEIGER

@<TRIPOS>ATOM
      1  N         26.4510   12.3640    7.9560 N.3    23  THR23      -0.1203
      2  CA        26.3400   11.3110    6.9400 C.3    23  THR23       0.1994
      3  C         24.9010   11.0520    6.4720 C.2    23  THR23       0.2618
      4  O         24.6890   10.2400    5.5690 O.2    23  THR23      -0.2717
      5  CB        26.9620    9.9790    7.4020 C.3    23  THR23       0.1784
      6  OG1       26.0880    9.3330    8.3390 O.3    23  THR23      -0.2211
      7  CG2       28.3430   10.2060    8.0240 C.3    23  THR23       0.0376
      8  N         23.9170   11.7250    7.0880 N.am   24  ASP24      -0.1959
      9  CA        22.5250   11.5380    6.6810 C.3    24  ASP24       0.1840
     10  C         22.2780   12.2250    5.3470 C.2    24  ASP24       0.2622
     11  O         22.9250   13.2340    5.0230 O.2    24  ASP24      -0.2715
     12  CB        21.5410   12.0470    7.7530 C.3    24  ASP24       0.1450
     13  CG        21.5870   11.2140    9.0390 C.2    24  ASP24       0.3671
     14  OD1       21.8020    9.9760    8.9570 O.co2  24  ASP24      -0.2456
     15  OD2       21.3990   11.7860   10.1300 O.co2  24  ASP24      -0.2456
     16  N         21.3540   11.6640    4.5710 N.am   25  SER25      -0.1950
     17  CA        20.9600   12.2270    3.2970 C.3    25  SER25       0.1924
     18  C         19.7180   13.1090    3.4690 C.2    25  SER25       0.2314
     19  O         18.7070   12.6790    4.0470 O.2    25  SER25      -0.2863
     20  CB        20.6510   11.0750    2.3290 C.3    25  SER25       0.2116
     21  OG        20.1950   11.5540    1.0920 O.3    25  SER25      -0.2180
     22  N         17.5860    7.3790    3.4230 N.3    46  ARG46      -0.1245
     23  CA        17.8930    6.3640    2.4150 C.3    46  ARG46       0.1563
     24  C         16.8490    5.2490    2.3970 C.2    46  ARG46       0.2260
     25  O         16.2210    4.9740    3.4260 O.2    46  ARG46      -0.2867
     26  CB        19.2590    5.7460    2.7150 C.3    46  ARG46       0.0307
     27  CG        20.4290    6.7380    2.6110 C.3    46  ARG46       0.0489
     28  CD        21.8100    6.0750    2.8120 C.3    46  ARG46       0.2205
     29  NE        22.7940    7.1360    2.6330 N.pl3  46  ARG46      -0.0865
     30  CZ        23.3080    7.8840    3.6010 C.cat  46  ARG46       0.5346
     31  NH1       23.0370    7.6390    4.8800 N.pl3  46  ARG46       0.1354
     32  NH2       24.1450    8.8640    3.2850 N.pl3  46  ARG46       0.1354
     33  N         19.6420    9.2770  -12.1750 N.3    82  VAL82      -0.1231
     34  CA        20.8660    9.5480  -11.3960 C.3    82  VAL82       0.1692
     35  C         21.7300    8.2890  -11.1760 C.2    82  VAL82       0.2592
     36  O         22.9610    8.3380  -11.3000 O.2    82  VAL82      -0.2718
     37  CB        20.5300   10.2090  -10.0230 C.3    82  VAL82       0.0266
     38  CG1       21.7310   10.2500   -9.0920 C.3    82  VAL82       0.0020
     39  CG2       19.9790   11.6190  -10.2240 C.3    82  VAL82       0.0020
     40  N         21.0870    7.1770  -10.8310 N.am   83  THR83      -0.1953
     41  CA        21.8370    5.9750  -10.4150 C.3    83  THR83       0.1897
     42  C         22.1660    5.0830  -11.6130 C.2    83  THR83       0.2313
     43  O         23.0510    4.2240  -11.5330 O.2    83  THR83      -0.2863
     44  CB        21.0730    5.1190   -9.3670 C.3    83  THR83       0.1794
     45  OG1       19.8840    4.5810   -9.9520 O.3    83  THR83      -0.2208
     46  CG2       20.7380    5.9250   -8.0870 C.3    83  THR83       0.0378
     47  N         16.7160    5.4660   -3.4990 N.3    92  VAL92      -0.1231
     48  CA        18.0830    5.2200   -2.9890 C.3    92  VAL92       0.1692
     49  C         18.4230    6.2010   -1.8890 C.2    92  VAL92       0.2592
     50  O         18.8460    5.8060   -0.7960 O.2    92  VAL92      -0.2718
     51  CB        19.1510    5.2480   -4.1530 C.3    92  VAL92       0.0266
     52  CG1       20.5710    5.3540   -3.5950 C.3    92  VAL92       0.0020
     53  CG2       19.0030    3.9750   -5.0030 C.3    92  VAL92       0.0020
     54  N         18.1970    7.4840   -2.1620 N.am   93  ASN93      -0.1974
     55  CA        18.3400    8.4710   -1.0990 C.3    93  ASN93       0.1688
     56  C         17.5670    9.7320   -1.4540 C.2    93  ASN93       0.2292
     57  O         17.0020    9.8310   -2.5620 O.2    93  ASN93      -0.2864
     58  CB        19.8270    8.7580   -0.7190 C.3    93  ASN93       0.1181
     59  CG        20.6390    9.4000   -1.8610 C.2    93  ASN93       0.2629
     60  OD1       20.1050   10.1290   -2.6760 O.2    93  ASN93      -0.2716
     61  ND2       21.9430    9.1030   -1.8930 N.am   93  ASN93      -0.0877
     62  N         19.0400   12.8300   -1.3650 N.3    95  THR95      -0.1203
     63  CA        19.9920   13.7940   -1.9630 C.3    95  THR95       0.1994
     64  C         19.9160   13.8300   -3.4830 C.2    95  THR95       0.2617
     65  O         20.0070   14.8950   -4.1230 O.2    95  THR95      -0.2717
     66  CB        21.4190   13.4250   -1.5270 C.3    95  THR95       0.1784
     67  OG1       21.4790   13.4990   -0.1020 O.3    95  THR95      -0.2211
     68  CG2       22.4600   14.3410   -2.1640 C.3    95  THR95       0.0376
     69  N         19.7120   12.6550   -4.0750 N.am   96  LEU96      -0.1979
     70  CA        19.6340   12.5780   -5.5400 C.3    96  LEU96       0.1596
     71  C         18.5000   13.4140   -6.1170 C.2    96  LEU96       0.2287
     72  O         18.5150   13.7460   -7.3110 O.2    96  LEU96      -0.2864
     73  CB        19.5310   11.1210   -6.0040 C.3    96  LEU96       0.0297
     74  CG        18.2890   10.2720   -5.6860 C.3    96  LEU96       0.0022
     75  CD1       17.1020   10.5760   -6.5680 C.3    96  LEU96       0.0001
     76  CD2       18.6780    8.8200   -5.8550 C.3    96  LEU96       0.0001
     77  N         19.2350   16.5680   -8.1320 N.3    99  GLU99      -0.1245
     78  CA        19.7430   16.5520   -9.4960 C.3    99  GLU99       0.1567
     79  C         19.1760   17.7530  -10.2710 C.2    99  GLU99       0.2260
     80  O         17.9780   17.8740  -10.3960 O.2    99  GLU99      -0.2867
     81  CB        19.3800   15.2240  -10.1890 C.3    99  GLU99       0.0388
     82  CG        19.6660   15.1880  -11.6910 C.3    99  GLU99       0.1160
     83  CD        21.1670   15.3140  -12.0040 C.2    99  GLU99       0.3649
     84  OE1       22.0050   15.0160  -11.1270 O.co2  99  GLU99      -0.2457
     85  OE2       21.4960   15.7450  -13.1310 O.co2  99  GLU99      -0.2457
     86  N         20.7570   22.5660   -2.8000 N.3   128  ARG128     -0.1245
     87  CA        19.9570   21.5710   -2.0930 C.3   128  ARG128      0.1563
     88  C         19.5650   22.0000   -0.7020 C.2   128  ARG128      0.2260
     89  O         18.3940   21.8980   -0.3330 O.2   128  ARG128     -0.2867
     90  CB        20.7130   20.2290   -2.0380 C.3   128  ARG128      0.0307
     91  CG        19.9490   19.1840   -1.2430 C.3   128  ARG128      0.0489
     92  CD        20.5970   17.8180   -1.3210 C.3   128  ARG128      0.2205
     93  NE        22.0670   17.8090   -1.2990 N.pl3 128  ARG128     -0.0865
     94  CZ        22.8400   17.8530   -0.2130 C.cat 128  ARG128      0.5346
     95  NH1       22.3170   18.0190    1.0090 N.pl3 128  ARG128      0.1354
     96  NH2       24.1680   17.7790   -0.3640 N.pl3 128  ARG128      0.1354
     97  N         23.8300   12.2290  -15.8300 N.3   278  PRO278     -0.2102
     98  CA        23.3700   13.2070  -14.8330 C.3   278  PRO278      0.1504
     99  C         24.4680   14.1800  -14.4430 C.2   278  PRO278      0.2576
    100  O         25.6550   13.8140  -14.4430 O.2   278  PRO278     -0.2718
    101  CB        22.9870   12.3420  -13.6260 C.3   278  PRO278      0.0282
    102  CG        23.7570   11.0310  -13.8230 C.3   278  PRO278      0.0208
    103  CD        23.8370   10.8470  -15.3090 C.3   278  PRO278      0.0893
    104  N         24.0730   15.4010  -14.0930 N.am  279  PHE279     -0.1963
    105  CA        24.9960   16.3510  -13.4860 C.3   279  PHE279      0.1771
    106  C         25.4060   15.8160  -12.1140 C.2   279  PHE279      0.2619
    107  O         24.6150   15.1620  -11.4260 O.2   279  PHE279     -0.2715
    108  CB        24.3330   17.7150  -13.2710 C.3   279  PHE279      0.0574
    109  CG        23.9900   18.4570  -14.5250 C.ar  279  PHE279     -0.0200
    110  CD1       24.8920   19.3710  -15.0780 C.ar  279  PHE279     -0.0042
    111  CD2       22.7350   18.3140  -15.1180 C.ar  279  PHE279     -0.0042
    112  CE1       24.5590   20.0890  -16.2460 C.ar  279  PHE279     -0.0003
    113  CE2       22.3870   19.0390  -16.2670 C.ar  279  PHE279     -0.0003
    114  CZ        23.2970   19.9260  -16.8300 C.ar  279  PHE279     -0.0000
    115  N         26.6290   16.1120  -11.7140 N.am  280  LEU280     -0.1963
    116  CA        27.1140   15.7650  -10.3900 C.3   280  LEU280      0.1728
    117  C         26.2640   16.4360   -9.3160 C.2   280  LEU280      0.2616
    118  O         25.8790   17.6010   -9.4490 O.2   280  LEU280     -0.2715
    119  CB        28.5670   16.2000  -10.2350 C.3   280  LEU280      0.0311
    120  CG        29.5960   15.3600  -10.9970 C.3   280  LEU280      0.0022
    121  CD1       30.9390   16.0970  -11.0530 C.3   280  LEU280      0.0001
    122  CD2       29.7180   13.9850  -10.3460 C.3   280  LEU280      0.0001
    123  N         25.9760   15.6870   -8.2590 N.am  281  LEU281     -0.1977
    124  CA        25.2200   16.2220   -7.1250 C.3   281  LEU281      0.1596
    125  C         26.1430   17.0150   -6.1850 C.2   281  LEU281      0.2287
    126  O         27.2780   16.6150   -5.9400 O.2   281  LEU281     -0.2864
    127  CB        24.5530   15.0680   -6.3510 C.3   281  LEU281      0.0297
    128  CG        23.5040   14.2440   -7.1010 C.3   281  LEU281      0.0022
    129  CD1       23.2430   12.8900   -6.4050 C.3   281  LEU281      0.0001
    130  CD2       22.1830   15.0240   -7.2730 C.3   281  LEU281      0.0001
    131  N         27.7020   17.8330   -2.7780 N.3   283  THR283     -0.1218
    132  CA        28.0430   16.8650   -1.7420 C.3   283  THR283      0.1862
    133  C         27.9610   17.4040   -0.3190 C.2   283  THR283      0.2287
    134  O         28.3520   16.7370    0.6310 O.2   283  THR283     -0.2866
    135  CB        29.4550   16.2960   -1.9980 C.3   283  THR283      0.1770
    136  OG1       30.3700   17.3930   -2.1840 O.3   283  THR283     -0.2211
    137  CG2       29.4350   15.4340   -3.2670 C.3   283  THR283      0.0375
@<TRIPOS>BOND
     1   114   113   ar
     2   114   112   ar
     3   113   111   ar
     4   112   110   ar
     5    97   103    1
     6    97    98    1
     7   103   102    1
     8   111   109   ar
     9   110   109   ar
    10    98    99    1
    11    98   101    1
    12   109   108    1
    13    99   100    2
    14    99   104   am
    15   104   105    1
    16   102   101    1
    17   105   108    1
    18   105   106    1
    19    85    83   ar
    20    33    34    1
    21   106   115   am
    22   106   107    2
    23    83    82    1
    24    83    84   ar
    25   115   116    1
    26    82    81    1
    27    42    43    2
    28    42    41    1
    29    34    35    1
    30    34    37    1
    31    36    35    2
    32    35    40   am
    33   121   120    1
    34   120   122    1
    35   120   119    1
    36    40    41    1
    37    41    44    1
    38    80    79    2
    39   116   119    1
    40   116   117    1
    41    79    78    1
    42    39    37    1
    43    81    78    1
    44    37    38    1
    45    45    44    1
    46    78    77    1
    47   118   117    2
    48    44    46    1
    49   117   123   am
    50   123   124    1
    51    72    71    2
    52   130   128    1
    53   124   127    1
    54   124   125    1
    55   128   129    1
    56   128   127    1
    57    75    74    1
    58   125   126    2
    59    71    70    1
    60    73    74    1
    61    73    70    1
    62    76    74    1
    63    70    69    1
    64    53    51    1
    65    51    52    1
    66    51    48    1
    67    65    64    2
    68    69    64   am
    69    47    48    1
    70    64    63    1
    71   137   135    1
    72    48    49    1
    73    86    87    1
    74   131   132    1
    75    60    59    2
    76    57    56    2
    77   136   135    1
    78    68    66    1
    79    54    49   am
    80    54    55    1
    81    87    90    1
    82    87    88    1
    83    90    91    1
    84   135   132    1
    85    63    66    1
    86    63    62    1
    87    61    59   am
    88    49    50    2
    89    59    58    1
    90   132   133    1
    91    66    67    1
    92    56    55    1
    93    92    93    1
    94    92    91    1
    95    93    94    2
    96    55    58    1
    97    88    89    2
    98    96    94    1
    99   133   134    2
   100    94    95    1
   101    21    20    1
   102    20    17    1
   103    24    23    1
   104    24    25    2
   105    23    26    1
   106    23    22    1
   107    27    26    1
   108    27    28    1
   109    29    28    1
   110    29    30    2
   111    32    30    1
   112    17    18    1
   113    17    16    1
   114    18    19    2
   115    30    31    1
   116    16    10   am
   117    11    10    2
   118    10     9    1
   119     4     3    2
   120     3     2    1
   121     3     8   am
   122     9     8    1
   123     9    12    1
   124     2     5    1
   125     2     1    1
   126     5     7    1
   127     5     6    1
   128    12    13    1
   129    14    13   ar
   130    13    15   ar
