@<TRIPOS>MOLECULE
tmp/2cixA04.pdb
 92 89 0 0 0
SMALL
GASTEIGER

@<TRIPOS>ATOM
      1  N          4.6970   33.2600    9.5190 N.3   208  ASP208     -0.1239
      2  CA         5.4580   32.6420   10.5990 C.3   208  ASP208      0.1674
      3  C          5.5080   31.1070   10.5150 C.2   208  ASP208      0.2266
      4  O          6.5330   30.5120   10.8570 O.2   208  ASP208     -0.2867
      5  CB         5.0460   33.1290   12.0030 C.3   208  ASP208      0.1410
      6  CG         3.5930   32.8810   12.3500 C.2   208  ASP208      0.3668
      7  OD1        2.7780   32.4560   11.4930 O.co2 208  ASP208     -0.2456
      8  OD2        3.2690   33.1240   13.5430 O.co2 208  ASP208     -0.2456
      9  N          7.8880   30.3210    7.5560 N.3   211  LYS211     -0.1231
     10  CA         9.2700   30.5410    7.9870 C.3   211  LYS211      0.1693
     11  C          9.7830   29.4530    8.9200 C.2   211  LYS211      0.2592
     12  O         10.8960   29.0070    8.7740 O.2   211  LYS211     -0.2718
     13  CB         9.4420   31.9180    8.6400 C.3   211  LYS211      0.0285
     14  CG        10.8900   32.3550    8.6970 C.3   211  LYS211      0.0035
     15  CD        11.0590   33.8320    9.0200 C.3   211  LYS211      0.0206
     16  CE        12.5550   34.1800    9.1300 C.3   211  LYS211      0.1093
     17  NZ        12.8120   35.6460    9.3000 N.3   211  LYS211     -0.1314
     18  N          8.9350   29.0130    9.8400 N.am  212  TYR212     -0.1976
     19  CA         9.3070   27.9660   10.7940 C.3   212  TYR212      0.1639
     20  C          9.5740   26.6710   10.0590 C.2   212  TYR212      0.2290
     21  O         10.5970   26.0230   10.2710 O.2   212  TYR212     -0.2864
     22  CB         8.1760   27.7700   11.8060 C.3   212  TYR212      0.0560
     23  CG         8.5310   26.8930   12.9930 C.ar  212  TYR212     -0.0198
     24  CD1        8.8450   25.5290   12.8390 C.ar  212  TYR212     -0.0009
     25  CD2        8.5510   27.4340   14.2840 C.ar  212  TYR212     -0.0009
     26  CE1        9.1860   24.7460   13.9680 C.ar  212  TYR212      0.0417
     27  CE2        8.8680   26.6690   15.4020 C.ar  212  TYR212      0.0417
     28  CZ         9.1740   25.3290   15.2440 C.ar  212  TYR212      0.1957
     29  OH         9.4820   24.5950   16.3570 O.3   212  TYR212     -0.2866
     30  N         12.7730   27.1450    7.7580 N.3   215  THR215     -0.1203
     31  CA        14.0180   27.3980    8.4670 C.3   215  THR215      0.1994
     32  C         14.3920   26.2310    9.3610 C.2   215  THR215      0.2617
     33  O         15.5520   25.8290    9.3950 O.2   215  THR215     -0.2717
     34  CB        13.9600   28.6830    9.3130 C.3   215  THR215      0.1784
     35  OG1       13.6290   29.7980    8.4580 O.3   215  THR215     -0.2211
     36  CG2       15.3300   28.9080   10.0470 C.3   215  THR215      0.0376
     37  N         13.4010   25.6610   10.0460 N.am  216  ASN216     -0.1974
     38  CA        13.6700   24.6260   11.0250 C.3   216  ASN216      0.1688
     39  C         13.5760   23.2010   10.4830 C.2   216  ASN216      0.2292
     40  O         14.0790   22.2810   11.1180 O.2   216  ASN216     -0.2864
     41  CB        12.7580   24.8220   12.2410 C.3   216  ASN216      0.1181
     42  CG        13.1670   26.0180   13.0510 C.2   216  ASN216      0.2629
     43  OD1       14.3420   26.4190   13.0180 O.2   216  ASN216     -0.2716
     44  ND2       12.2040   26.6260   13.7470 N.am  216  ASN216     -0.0877
     45  N          4.2580   24.9300   17.7260 N.3   222  HIS222     -0.1226
     46  CA         4.3750   25.9560   18.7750 C.3   222  HIS222      0.1752
     47  C          3.6820   27.2590   18.3940 C.2   222  HIS222      0.2595
     48  O          3.3660   28.0860   19.2720 O.2   222  HIS222     -0.2718
     49  CB         5.8310   26.2520   19.0980 C.3   222  HIS222      0.0759
     50  CG         6.5790   25.0890   19.6700 C.ar  222  HIS222      0.0818
     51  ND1        5.9700   24.0940   20.4070 N.ar  222  HIS222     -0.2268
     52  CD2        7.9000   24.7760   19.6310 C.ar  222  HIS222      0.1154
     53  CE1        6.8790   23.2130   20.7850 C.ar  222  HIS222      0.1986
     54  NE2        8.0540   23.5970   20.3190 N.ar  222  HIS222     -0.2212
     55  N          3.4650   27.4420   17.0910 N.am  223  LEU223     -0.1980
     56  CA         2.7550   28.6100   16.5790 C.3   223  LEU223      0.1596
     57  C          1.2940   28.3160   16.2580 C.2   223  LEU223      0.2287
     58  O          0.6490   29.1100   15.5700 O.2   223  LEU223     -0.2864
     59  CB         3.4720   29.1410   15.3310 C.3   223  LEU223      0.0297
     60  CG         4.9210   29.5820   15.5360 C.3   223  LEU223      0.0022
     61  CD1        5.5650   29.9600   14.1970 C.3   223  LEU223      0.0001
     62  CD2        4.9700   30.7590   16.4940 C.3   223  LEU223      0.0001
     63  N         18.0930   29.3020   16.7980 N.3   292  PRO292     -0.2102
     64  CA        18.6800   28.3120   17.7230 C.3   292  PRO292      0.1504
     65  C         18.6550   26.8770   17.1890 C.2   292  PRO292      0.2576
     66  O         17.9470   26.5960   16.2150 O.2   292  PRO292     -0.2718
     67  CB        17.7250   28.3750   18.9050 C.3   292  PRO292      0.0282
     68  CG        16.3960   28.5760   18.2440 C.3   292  PRO292      0.0208
     69  CD        16.6680   29.5220   17.1100 C.3   292  PRO292      0.0893
     70  N         19.4080   25.9840   17.8360 N.am  293  THR293     -0.1939
     71  CA        19.2780   24.5510   17.5630 C.3   293  THR293      0.2028
     72  C         17.9250   24.1080   18.1310 C.2   293  THR293      0.2642
     73  O         17.3900   24.7300   19.0540 O.2   293  THR293     -0.2714
     74  CB        20.4340   23.7010   18.1630 C.3   293  THR293      0.1808
     75  OG1       20.3160   23.6640   19.5860 O.3   293  THR293     -0.2208
     76  CG2       21.8050   24.2660   17.8040 C.3   293  THR293      0.0379
     77  N         17.3550   23.0440   17.5710 N.am  294  LEU294     -0.1977
     78  CA        16.0540   22.5720   18.0120 C.3   294  LEU294      0.1596
     79  C         16.1200   21.4050   18.9970 C.2   294  LEU294      0.2287
     80  O         16.9690   20.5170   18.8840 O.2   294  LEU294     -0.2864
     81  CB        15.1600   22.1780   16.8170 C.3   294  LEU294      0.0297
     82  CG        14.9890   23.0940   15.5950 C.3   294  LEU294      0.0022
     83  CD1       13.7600   22.6300   14.7790 C.3   294  LEU294      0.0001
     84  CD2       14.8520   24.5490   15.9750 C.3   294  LEU294      0.0001
     85  N         10.5020   20.4950   19.0760 N.3   298  ASP298     -0.1239
     86  CA        10.4390   21.6890   18.2070 C.3   298  ASP298      0.1674
     87  C         10.2770   21.3500   16.7280 C.2   298  ASP298      0.2266
     88  O         10.1670   22.2790   15.8790 O.2   298  ASP298     -0.2867
     89  CB        11.6920   22.5490   18.3660 C.3   298  ASP298      0.1410
     90  CG        11.8840   23.0570   19.7750 C.2   298  ASP298      0.3668
     91  OD1       10.8740   23.2040   20.5210 O.co2 298  ASP298     -0.2456
     92  OD2       13.0590   23.3370   20.1030 O.co2 298  ASP298     -0.2456
@<TRIPOS>BOND
     1     9    10    1
     2    30    31    1
     3    10    13    1
     4    10    11    1
     5    35    34    1
     6    31    34    1
     7    31    32    1
     8    13    14    1
     9    14    15    1
    10    12    11    2
    11    11    18   am
    12    15    16    1
    13    16    17    1
    14    34    36    1
    15    32    33    2
    16    32    37   am
    17     1     2    1
    18    18    19    1
    19    37    38    1
    20    20    21    2
    21    20    19    1
    22    39    38    1
    23    39    40    2
    24     3     2    1
    25     3     4    2
    26     2     5    1
    27    19    22    1
    28    38    41    1
    29     7     6   ar
    30    22    23    1
    31     5     6    1
    32    41    42    1
    33     6     8   ar
    34    24    23   ar
    35    24    26   ar
    36    23    25   ar
    37    43    42    2
    38    42    44   am
    39    26    28   ar
    40    61    60    1
    41    25    27   ar
    42    83    82    1
    43    28    27   ar
    44    28    29    1
    45    59    60    1
    46    59    56    1
    47    60    62    1
    48    58    57    2
    49    82    84    1
    50    82    81    1
    51    88    87    2
    52    66    65    2
    53    57    56    1
    54    56    55    1
    55    87    86    1
    56    63    69    1
    57    63    64    1
    58    81    78    1
    59    55    47   am
    60    69    68    1
    61    65    64    1
    62    65    70   am
    63    71    70    1
    64    71    72    1
    65    71    74    1
    66    77    78    1
    67    77    72   am
    68    64    67    1
    69    45    46    1
    70    76    74    1
    71    78    79    1
    72    72    73    2
    73    74    75    1
    74    86    89    1
    75    86    85    1
    76    68    67    1
    77    89    90    1
    78    47    46    1
    79    47    48    2
    80    46    49    1
    81    80    79    2
    82    49    50    1
    83    52    50   ar
    84    52    54   ar
    85    50    51   ar
    86    90    92   ar
    87    90    91   ar
    88    54    53   ar
    89    51    53   ar
