@<TRIPOS>MOLECULE
tmp/2cixA07.pdb
 72 67 0 0 0
SMALL
GASTEIGER

@<TRIPOS>ATOM
      1  N          5.7080   25.1270  -14.1330 N.3   178  PRO178     -0.2116
      2  CA         4.8810   23.9970  -13.6910 C.3   178  PRO178      0.1372
      3  C          5.3290   23.3350  -12.3900 C.2   178  PRO178      0.2244
      4  O          4.4790   23.0370  -11.5450 O.2   178  PRO178     -0.2868
      5  CB         4.9710   22.9960  -14.8570 C.3   178  PRO178      0.0268
      6  CG         5.2790   23.8440  -16.0390 C.3   178  PRO178      0.0207
      7  CD         6.2330   24.8850  -15.4990 C.3   178  PRO178      0.0892
      8  N          5.1410   25.9160   -9.3140 N.3   181  ASN181     -0.1225
      9  CA         3.8270   26.3580   -8.8550 C.3   181  ASN181      0.1785
     10  C          2.9200   25.2780   -8.2770 C.2   181  ASN181      0.2597
     11  O          1.9760   25.5710   -7.5350 O.2   181  ASN181     -0.2718
     12  CB         3.2110   27.3420   -9.8490 C.3   181  ASN181      0.1169
     13  CG         4.0160   28.6260   -9.8670 C.2   181  ASN181      0.2627
     14  OD1        3.9910   29.3920   -8.8870 O.2   181  ASN181     -0.2716
     15  ND2        4.8330   28.8000  -10.8880 N.am  181  ASN181     -0.0877
     16  N          3.2860   24.0230   -8.5190 N.am  182  VAL182     -0.1980
     17  CA         2.7350   22.9560   -7.6870 C.3   182  VAL182      0.1595
     18  C          3.2620   23.1990   -6.2540 C.2   182  VAL182      0.2287
     19  O          2.5020   23.0930   -5.2890 O.2   182  VAL182     -0.2864
     20  CB         3.1330   21.5400   -8.1550 C.3   182  VAL182      0.0276
     21  CG1        2.7210   20.4990   -7.0870 C.3   182  VAL182      0.0022
     22  CG2        2.4390   21.2120   -9.4610 C.3   182  VAL182      0.0022
     23  N         -3.5430   21.9990   -7.1990 N.3   238  THR238     -0.1218
     24  CA        -3.4220   22.4560   -8.5910 C.3   238  THR238      0.1862
     25  C         -4.3370   23.6860   -8.8170 C.2   238  THR238      0.2287
     26  O         -4.0110   24.5720   -9.6180 O.2   238  THR238     -0.2866
     27  CB        -3.6620   21.3420   -9.6310 C.3   238  THR238      0.1770
     28  OG1       -5.0110   20.8760   -9.5610 O.3   238  THR238     -0.2211
     29  CG2       -2.7060   20.1610   -9.4180 C.3   238  THR238      0.0375
     30  N         -2.1820   26.4620   -7.4560 N.3   241  SER241     -0.1202
     31  CA        -1.1530   26.6460   -8.4640 C.3   241  SER241      0.2020
     32  C         -1.6790   27.5210   -9.6130 C.2   241  SER241      0.2619
     33  O         -1.0430   28.5080  -10.0390 O.2   241  SER241     -0.2717
     34  CB        -0.7320   25.2760   -9.0100 C.3   241  SER241      0.2103
     35  OG         0.1090   25.4670  -10.1470 O.3   241  SER241     -0.2182
     36  N         -2.8490   27.1580  -10.1240 N.am  242  SER242     -0.1951
     37  CA        -3.4420   27.9290  -11.2190 C.3   242  SER242      0.1924
     38  C         -3.7930   29.3620  -10.7590 C.2   242  SER242      0.2314
     39  O         -3.5520   30.3280  -11.4800 O.2   242  SER242     -0.2863
     40  CB        -4.6450   27.1770  -11.7840 C.3   242  SER242      0.2116
     41  OG        -5.3250   27.9820  -12.7290 O.3   242  SER242     -0.2180
     42  N         -0.7750   31.7210  -10.6060 N.3   245  LEU245     -0.1245
     43  CA        -0.3660   32.1400  -11.9630 C.3   245  LEU245      0.1561
     44  C         -1.3930   33.0270  -12.6640 C.2   245  LEU245      0.2260
     45  O         -1.0230   33.8030  -13.5520 O.2   245  LEU245     -0.2867
     46  CB         0.0060   30.9360  -12.8310 C.3   245  LEU245      0.0270
     47  CG         1.2830   30.2030  -12.3690 C.3   245  LEU245      0.0019
     48  CD1        1.5690   29.0110  -13.2840 C.3   245  LEU245      0.0001
     49  CD2        2.4780   31.1460  -12.2680 C.3   245  LEU245      0.0001
     50  N          0.5180   28.5830  -16.5230 N.3   264  GLY264     -0.1210
     51  CA         1.6060   27.6350  -16.6430 C.3   264  GLY264      0.1956
     52  C          1.0640   26.3240  -17.1620 C.2   264  GLY264      0.2612
     53  O         -0.1070   26.0430  -17.0330 O.2   264  GLY264     -0.2717
     54  N          1.9240   25.5260  -17.7580 N.am  265  ALA265     -0.1965
     55  CA         1.5650   24.1600  -18.1660 C.3   265  ALA265      0.1728
     56  C          1.2510   23.2570  -16.9760 C.2   265  ALA265      0.2616
     57  O          1.8220   23.4150  -15.9000 O.2   265  ALA265     -0.2715
     58  CB         2.6930   23.5550  -18.9680 C.3   265  ALA265      0.0334
     59  N          0.3610   22.2910  -17.1740 N.am  266  GLU266     -0.1963
     60  CA         0.1890   21.2310  -16.1900 C.3   266  GLU266      0.1733
     61  C          1.5050   20.4340  -16.0540 C.2   266  GLU266      0.2616
     62  O          2.1840   20.1400  -17.0500 O.2   266  GLU266     -0.2715
     63  CB        -0.9720   20.3240  -16.5890 C.3   266  GLU266      0.0429
     64  CG        -1.3330   19.3000  -15.5480 C.3   266  GLU266      0.1163
     65  CD        -2.4660   18.3880  -15.9710 C.2   266  GLU266      0.3649
     66  OE1       -2.9680   18.5240  -17.1110 O.co2 266  GLU266     -0.2457
     67  OE2       -2.8520   17.5190  -15.1590 O.co2 266  GLU266     -0.2457
     68  N          1.8780   20.1160  -14.8160 N.am  267  ALA267     -0.1977
     69  CA         3.0340   19.2770  -14.5420 C.3   267  ALA267      0.1597
     70  C          2.7500   17.8800  -15.0700 C.2   267  ALA267      0.2287
     71  O          1.6450   17.3660  -14.8770 O.2   267  ALA267     -0.2864
     72  CB         3.3110   19.2290  -13.0080 C.3   267  ALA267      0.0319
@<TRIPOS>BOND
     1    58    55    1
     2    55    54    1
     3    55    56    1
     4    54    52   am
     5    59    56   am
     6    59    60    1
     7    52    53    2
     8    52    51    1
     9    66    65   ar
    10    62    61    2
    11    56    57    2
    12    51    50    1
    13    63    60    1
    14    63    64    1
    15    60    61    1
    16    61    68   am
    17     6     7    1
    18     6     5    1
    19    65    64    1
    20    65    67   ar
    21     7     1    1
    22    70    71    2
    23    70    69    1
    24     5     2    1
    25    68    69    1
    26    69    72    1
    27     1     2    1
    28     2     3    1
    29    45    44    2
    30    48    47    1
    31    46    47    1
    32    46    43    1
    33    41    40    1
    34    44    43    1
    35     3     4    2
    36    47    49    1
    37    43    42    1
    38    40    37    1
    39    39    38    2
    40    37    38    1
    41    37    36    1
    42    15    13   am
    43    35    34    1
    44    36    32   am
    45    33    32    2
    46    13    12    1
    47    13    14    2
    48    12     9    1
    49    27    28    1
    50    27    29    1
    51    27    24    1
    52    26    25    2
    53    32    31    1
    54    22    20    1
    55     8     9    1
    56    34    31    1
    57     9    10    1
    58    25    24    1
    59    24    23    1
    60    16    10   am
    61    16    17    1
    62    31    30    1
    63    10    11    2
    64    20    17    1
    65    20    21    1
    66    17    18    1
    67    18    19    2
