@<TRIPOS>MOLECULE
tmp/2ciyA04.pdb
 137 130 0 0 0
SMALL
GASTEIGER

@<TRIPOS>ATOM
      1  N         26.5430   12.4090    8.2070 N.3    23  THR23      -0.1203
      2  CA        26.4190   11.3100    7.2430 C.3    23  THR23       0.1994
      3  C         24.9720   11.0890    6.7840 C.2    23  THR23       0.2618
      4  O         24.7370   10.3110    5.8630 O.2    23  THR23      -0.2717
      5  CB        26.9940    9.9640    7.7730 C.3    23  THR23       0.1784
      6  OG1       26.1770    9.4630    8.8310 O.3    23  THR23      -0.2211
      7  CG2       28.4570   10.1360    8.2600 C.3    23  THR23       0.0376
      8  N         24.0080   11.7590    7.4240 N.am   24  ASP24      -0.1959
      9  CA        22.6010   11.6170    7.0010 C.3    24  ASP24       0.1840
     10  C         22.3510   12.2790    5.6420 C.2    24  ASP24       0.2622
     11  O         22.9700   13.2910    5.3240 O.2    24  ASP24      -0.2715
     12  CB        21.6360   12.1510    8.0690 C.3    24  ASP24       0.1450
     13  CG        21.6560   11.3160    9.3520 C.2    24  ASP24       0.3671
     14  OD1       21.8290   10.0790    9.2750 O.co2  24  ASP24      -0.2456
     15  OD2       21.4650   11.8870   10.4430 O.co2  24  ASP24      -0.2456
     16  N         21.4470   11.6940    4.8540 N.am   25  SER25      -0.1950
     17  CA        21.0280   12.2560    3.5780 C.3    25  SER25       0.1924
     18  C         19.7960   13.1610    3.7440 C.2    25  SER25       0.2314
     19  O         18.7710   12.7570    4.3500 O.2    25  SER25      -0.2863
     20  CB        20.7240   11.1170    2.5980 C.3    25  SER25       0.2116
     21  OG        20.2510   11.6200    1.3610 O.3    25  SER25      -0.2180
     22  N         17.6650    7.4220    3.6550 N.3    46  ARG46      -0.1245
     23  CA        17.9790    6.3910    2.6590 C.3    46  ARG46       0.1563
     24  C         16.9640    5.2580    2.6090 C.2    46  ARG46       0.2260
     25  O         16.3000    4.9500    3.6160 O.2    46  ARG46      -0.2867
     26  CB        19.3690    5.7920    2.9160 C.3    46  ARG46       0.0307
     27  CG        20.4840    6.8030    2.7830 C.3    46  ARG46       0.0489
     28  CD        21.8630    6.1830    3.0630 C.3    46  ARG46       0.2205
     29  NE        22.8730    7.2160    2.8840 N.pl3  46  ARG46      -0.0865
     30  CZ        23.4180    7.9360    3.8570 C.cat  46  ARG46       0.5346
     31  NH1       23.1210    7.7080    5.1410 N.pl3  46  ARG46       0.1354
     32  NH2       24.2870    8.8880    3.5250 N.pl3  46  ARG46       0.1354
     33  N         19.8140    9.4040  -12.0170 N.3    82  VAL82      -0.1231
     34  CA        21.0400    9.6800  -11.2570 C.3    82  VAL82       0.1692
     35  C         21.9120    8.4350  -11.0410 C.2    82  VAL82       0.2592
     36  O         23.1450    8.4910  -11.2480 O.2    82  VAL82      -0.2718
     37  CB        20.7130   10.3460   -9.8840 C.3    82  VAL82       0.0266
     38  CG1       21.9370   10.3810   -8.9630 C.3    82  VAL82       0.0020
     39  CG2       20.1620   11.7630  -10.0960 C.3    82  VAL82       0.0020
     40  N         21.2830    7.3380  -10.6140 N.am   83  THR83      -0.1953
     41  CA        22.0140    6.1120  -10.2390 C.3    83  THR83       0.1897
     42  C         22.3590    5.2360  -11.4460 C.2    83  THR83       0.2313
     43  O         23.2870    4.4220  -11.3790 O.2    83  THR83      -0.2863
     44  CB        21.2340    5.2160   -9.2360 C.3    83  THR83       0.1794
     45  OG1       20.0700    4.6690   -9.8780 O.3    83  THR83      -0.2208
     46  CG2       20.8660    5.9650   -7.9520 C.3    83  THR83       0.0378
     47  N         16.8360    5.4860   -3.3650 N.3    92  VAL92      -0.1231
     48  CA        18.1780    5.2780   -2.8200 C.3    92  VAL92       0.1692
     49  C         18.5390    6.2440   -1.6750 C.2    92  VAL92       0.2592
     50  O         18.9600    5.8100   -0.5850 O.2    92  VAL92      -0.2718
     51  CB        19.2260    5.2810   -3.9540 C.3    92  VAL92       0.0266
     52  CG1       20.6500    5.4330   -3.3850 C.3    92  VAL92       0.0020
     53  CG2       19.0670    3.9840   -4.7850 C.3    92  VAL92       0.0020
     54  N         18.3280    7.5370   -1.9150 N.am   93  ASN93      -0.1974
     55  CA        18.4620    8.5510   -0.8500 C.3    93  ASN93       0.1688
     56  C         17.7250    9.8310   -1.2350 C.2    93  ASN93       0.2292
     57  O         17.1750    9.9310   -2.3450 O.2    93  ASN93      -0.2864
     58  CB        19.9460    8.8130   -0.4740 C.3    93  ASN93       0.1181
     59  CG        20.7550    9.4870   -1.6140 C.2    93  ASN93       0.2629
     60  OD1       20.2080   10.2170   -2.4470 O.2    93  ASN93      -0.2716
     61  ND2       22.0700    9.2200   -1.6300 N.am   93  ASN93      -0.0877
     62  N         19.1950   12.9040   -1.1230 N.3    95  THR95      -0.1203
     63  CA        20.1620   13.8540   -1.6870 C.3    95  THR95       0.1994
     64  C         20.0870   13.9300   -3.2260 C.2    95  THR95       0.2617
     65  O         20.1660   15.0110   -3.8210 O.2    95  THR95      -0.2717
     66  CB        21.5710   13.5000   -1.1660 C.3    95  THR95       0.1784
     67  OG1       21.5660   13.6430    0.2690 O.3    95  THR95      -0.2211
     68  CG2       22.6640   14.4060   -1.8070 C.3    95  THR95       0.0376
     69  N         19.8920   12.7730   -3.8560 N.am   96  LEU96      -0.1979
     70  CA        19.8130   12.6840   -5.3160 C.3    96  LEU96       0.1596
     71  C         18.6410   13.4850   -5.8790 C.2    96  LEU96       0.2287
     72  O         18.6280   13.8290   -7.0630 O.2    96  LEU96      -0.2864
     73  CB        19.7290   11.2190   -5.7720 C.3    96  LEU96       0.0297
     74  CG        18.5130   10.3860   -5.3570 C.3    96  LEU96       0.0022
     75  CD1       17.3120   10.5940   -6.2850 C.3    96  LEU96       0.0001
     76  CD2       18.9140    8.9200   -5.3710 C.3    96  LEU96       0.0001
     77  N         19.3390   16.6930   -7.9350 N.3    99  GLU99      -0.1245
     78  CA        19.8550   16.6560   -9.3110 C.3    99  GLU99       0.1567
     79  C         19.2790   17.8400  -10.1080 C.2    99  GLU99       0.2260
     80  O         18.0720   17.9600  -10.2160 O.2    99  GLU99      -0.2867
     81  CB        19.4790   15.3220   -9.9720 C.3    99  GLU99       0.0388
     82  CG        19.7780   15.2610  -11.4810 C.3    99  GLU99       0.1160
     83  CD        21.2610   15.3910  -11.8080 C.2    99  GLU99       0.3649
     84  OE1       22.0920   15.0770  -10.9270 O.co2  99  GLU99      -0.2457
     85  OE2       21.5780   15.7930  -12.9640 O.co2  99  GLU99      -0.2457
     86  N         20.8090   22.6620   -2.6560 N.3   128  ARG128     -0.1245
     87  CA        20.0150   21.6800   -1.9270 C.3   128  ARG128      0.1563
     88  C         19.6400   22.1230   -0.5090 C.2   128  ARG128      0.2260
     89  O         18.4660   22.0400   -0.1160 O.2   128  ARG128     -0.2867
     90  CB        20.7640   20.3390   -1.8820 C.3   128  ARG128      0.0307
     91  CG        20.0970   19.3030   -0.9600 C.3   128  ARG128      0.0489
     92  CD        20.6840   17.9020   -1.1030 C.3   128  ARG128      0.2205
     93  NE        22.1540   17.8510   -1.1330 N.pl3 128  ARG128     -0.0865
     94  CZ        22.9470   17.9150   -0.0660 C.cat 128  ARG128      0.5346
     95  NH1       22.4380   18.0670    1.1600 N.pl3 128  ARG128      0.1354
     96  NH2       24.2700   17.8280   -0.2260 N.pl3 128  ARG128      0.1354
     97  N         24.0160   12.3670  -15.6800 N.3   278  PRO278     -0.2102
     98  CA        23.5360   13.3480  -14.7010 C.3   278  PRO278      0.1504
     99  C         24.6170   14.3510  -14.2880 C.2   278  PRO278      0.2576
    100  O         25.8030   14.0250  -14.2950 O.2   278  PRO278     -0.2718
    101  CB        23.1290   12.4820  -13.5050 C.3   278  PRO278      0.0282
    102  CG        23.9800   11.2370  -13.6310 C.3   278  PRO278      0.0208
    103  CD        24.1090   11.0040  -15.1180 C.3   278  PRO278      0.0893
    104  N         24.1920   15.5630  -13.9310 N.am  279  PHE279     -0.1963
    105  CA        25.0870   16.5270  -13.2880 C.3   279  PHE279      0.1771
    106  C         25.5160   16.0030  -11.9190 C.2   279  PHE279      0.2619
    107  O         24.7280   15.3310  -11.2290 O.2   279  PHE279     -0.2715
    108  CB        24.3850   17.8730  -13.0790 C.3   279  PHE279      0.0574
    109  CG        24.0480   18.5960  -14.3480 C.ar  279  PHE279     -0.0200
    110  CD1       25.0070   19.3980  -14.9890 C.ar  279  PHE279     -0.0042
    111  CD2       22.7710   18.4960  -14.9030 C.ar  279  PHE279     -0.0042
    112  CE1       24.6840   20.0740  -16.1710 C.ar  279  PHE279     -0.0003
    113  CE2       22.4400   19.1770  -16.0710 C.ar  279  PHE279     -0.0003
    114  CZ        23.4050   19.9590  -16.7130 C.ar  279  PHE279     -0.0000
    115  N         26.7470   16.3200  -11.5220 N.am  280  LEU280     -0.1963
    116  CA        27.2590   15.9680  -10.1990 C.3   280  LEU280      0.1728
    117  C         26.4320   16.6410   -9.1040 C.2   280  LEU280      0.2616
    118  O         26.1130   17.8300   -9.1880 O.2   280  LEU280     -0.2715
    119  CB        28.7280   16.3940  -10.0440 C.3   280  LEU280      0.0311
    120  CG        29.7920   15.5940  -10.7920 C.3   280  LEU280      0.0022
    121  CD1       31.1310   16.3620  -10.7930 C.3   280  LEU280      0.0001
    122  CD2       29.9280   14.2180  -10.1600 C.3   280  LEU280      0.0001
    123  N         26.1060   15.8680   -8.0780 N.am  281  LEU281     -0.1977
    124  CA        25.3720   16.3710   -6.9150 C.3   281  LEU281      0.1596
    125  C         26.2770   17.1610   -5.9680 C.2   281  LEU281      0.2287
    126  O         27.4070   16.7260   -5.6800 O.2   281  LEU281     -0.2864
    127  CB        24.7600   15.1840   -6.1480 C.3   281  LEU281      0.0297
    128  CG        23.6510   14.4010   -6.8720 C.3   281  LEU281      0.0022
    129  CD1       23.3800   13.0510   -6.1940 C.3   281  LEU281      0.0001
    130  CD2       22.3560   15.2240   -6.9730 C.3   281  LEU281      0.0001
    131  N         27.8080   18.0540   -2.5490 N.3   283  THR283     -0.1218
    132  CA        28.1570   17.0830   -1.5100 C.3   283  THR283      0.1862
    133  C         28.0550   17.6130   -0.0730 C.2   283  THR283      0.2287
    134  O         28.4500   16.9290    0.8640 O.2   283  THR283     -0.2866
    135  CB        29.6000   16.5520   -1.7280 C.3   283  THR283      0.1770
    136  OG1       30.4750   17.6650   -1.9570 O.3   283  THR283     -0.2211
    137  CG2       29.6490   15.6120   -2.9360 C.3   283  THR283      0.0375
@<TRIPOS>BOND
     1   114   112   ar
     2   114   113   ar
     3   112   110   ar
     4   113   111   ar
     5    97   103    1
     6    97    98    1
     7   103   102    1
     8   110   109   ar
     9   111   109   ar
    10    98    99    1
    11    98   101    1
    12   109   108    1
    13   100    99    2
    14    99   104   am
    15   104   105    1
    16   102   101    1
    17   105   108    1
    18   105   106    1
    19    85    83   ar
    20    33    34    1
    21   106   115   am
    22   106   107    2
    23    83    82    1
    24    83    84   ar
    25   115   116    1
    26    82    81    1
    27    42    43    2
    28    42    41    1
    29    34    35    1
    30    34    37    1
    31    36    35    2
    32    35    40   am
    33   121   120    1
    34   120   122    1
    35   120   119    1
    36    40    41    1
    37    41    44    1
    38    80    79    2
    39   116   119    1
    40   116   117    1
    41    79    78    1
    42    39    37    1
    43    81    78    1
    44    37    38    1
    45    45    44    1
    46    78    77    1
    47    44    46    1
    48   118   117    2
    49   117   123   am
    50   123   124    1
    51    72    71    2
    52   130   128    1
    53   124   127    1
    54   124   125    1
    55   128   129    1
    56   128   127    1
    57    75    74    1
    58   125   126    2
    59    71    70    1
    60    73    74    1
    61    73    70    1
    62    76    74    1
    63    70    69    1
    64    53    51    1
    65    51    52    1
    66    51    48    1
    67    69    64   am
    68    65    64    2
    69    47    48    1
    70    64    63    1
    71   137   135    1
    72    48    49    1
    73    86    87    1
    74   131   132    1
    75    60    59    2
    76    57    56    2
    77   136   135    1
    78    87    90    1
    79    87    88    1
    80    54    49   am
    81    54    55    1
    82    90    91    1
    83    68    66    1
    84   135   132    1
    85    63    66    1
    86    63    62    1
    87    49    50    2
    88    61    59   am
    89    59    58    1
    90   132   133    1
    91    56    55    1
    92    66    67    1
    93    93    92    1
    94    93    94    2
    95    92    91    1
    96    55    58    1
    97    88    89    2
    98    96    94    1
    99   133   134    2
   100    94    95    1
   101    21    20    1
   102    20    17    1
   103    24    23    1
   104    24    25    2
   105    23    26    1
   106    23    22    1
   107    27    26    1
   108    27    28    1
   109    29    28    1
   110    29    30    2
   111    32    30    1
   112    17    18    1
   113    17    16    1
   114    18    19    2
   115    30    31    1
   116    16    10   am
   117    11    10    2
   118    10     9    1
   119     4     3    2
   120     3     2    1
   121     3     8   am
   122     9     8    1
   123     9    12    1
   124     2     5    1
   125     2     1    1
   126     5     7    1
   127     5     6    1
   128    12    13    1
   129    14    13   ar
   130    13    15   ar
