@<TRIPOS>MOLECULE
tmp/2cj9A00.pdb
 183 172 0 0 0
SMALL
GASTEIGER

@<TRIPOS>ATOM
      1  N         46.1440    0.4180   86.9860 N.3   279  ALA279     -0.1245
      2  CA        45.3880   -0.5380   86.1700 C.3   279  ALA279      0.1562
      3  C         44.9990   -1.7860   86.9730 C.2   279  ALA279      0.2260
      4  O         44.2030   -2.6080   86.5090 O.2   279  ALA279     -0.2867
      5  CB        46.1720   -0.9040   84.9360 C.3   279  ALA279      0.0290
      6  N         45.6640   -4.7800   87.6520 N.3   281  CYS281     -0.1235
      7  CA        46.0660   -6.1400   87.3160 C.3   281  CYS281      0.1677
      8  C         47.5850   -6.3770   87.2660 C.2   281  CYS281      0.2270
      9  O         48.0340   -7.4600   87.6480 O.2   281  CYS281     -0.2867
     10  CB        45.3790   -6.6310   86.0330 C.3   281  CYS281      0.0956
     11  SG        45.7900   -5.7070   84.5500 S.3   281  CYS281     -0.0801
     12  N         44.2450    7.8320   89.5970 N.3   311  ARG311     -0.1245
     13  CA        44.6080    8.3850   88.2940 C.3   311  ARG311      0.1563
     14  C         44.4520    9.8920   88.3360 C.2   311  ARG311      0.2260
     15  O         43.4380   10.3980   88.8110 O.2   311  ARG311     -0.2867
     16  CB        43.7190    7.8290   87.1770 C.3   311  ARG311      0.0307
     17  CG        43.7930    6.3400   87.0110 C.3   311  ARG311      0.0489
     18  CD        43.0790    5.8590   85.7650 C.3   311  ARG311      0.2205
     19  NE        43.1880    4.4030   85.6950 N.pl3 311  ARG311     -0.0865
     20  CZ        42.7170    3.6410   84.7170 C.cat 311  ARG311      0.5346
     21  NH1       42.0860    4.1730   83.6840 N.pl3 311  ARG311      0.1354
     22  NH2       42.8830    2.3300   84.7840 N.pl3 311  ARG311      0.1354
     23  N         43.2710   12.4300   86.5740 N.3   313  GLU313     -0.1245
     24  CA        42.3610   12.7650   85.4660 C.3   313  GLU313      0.1567
     25  C         42.4000   14.2540   85.0880 C.2   313  GLU313      0.2260
     26  O         43.0150   15.0580   85.7850 O.2   313  GLU313     -0.2867
     27  CB        40.9270   12.3780   85.8330 C.3   313  GLU313      0.0388
     28  CG        40.7260   10.9040   86.1570 C.3   313  GLU313      0.1160
     29  CD        40.7820   10.0120   84.9320 C.2   313  GLU313      0.3649
     30  OE1       40.4800   10.4890   83.8190 O.co2 313  GLU313     -0.2457
     31  OE2       41.1070    8.8200   85.0870 O.co2 313  GLU313     -0.2457
     32  N         31.2580   10.1230   88.5590 N.3   321  GLU321     -0.1231
     33  CA        31.4730    9.5010   87.2560 C.3   321  GLU321      0.1699
     34  C         32.9290    9.6490   86.8040 C.2   321  GLU321      0.2592
     35  O         33.4350    8.8180   86.0490 O.2   321  GLU321     -0.2718
     36  CB        30.4830   10.0290   86.2040 C.3   321  GLU321      0.0402
     37  CG        30.8400   11.3590   85.5350 C.3   321  GLU321      0.1161
     38  CD        30.5580   12.5730   86.4010 C.2   321  GLU321      0.3649
     39  OE1       29.7200   12.4800   87.3260 O.co2 321  GLU321     -0.2457
     40  OE2       31.1770   13.6290   86.1440 O.co2 321  GLU321     -0.2457
     41  N         33.5990   10.6950   87.2830 N.am  322  ARG322     -0.1966
     42  CA        35.0060   10.9140   86.9610 C.3   322  ARG322      0.1729
     43  C         35.8010   11.3830   88.1750 C.2   322  ARG322      0.2616
     44  O         35.7020   12.5430   88.6000 O.2   322  ARG322     -0.2715
     45  CB        35.1600   11.8930   85.7940 C.3   322  ARG322      0.0348
     46  CG        36.6140   12.1160   85.4260 C.3   322  ARG322      0.0492
     47  CD        36.7950   12.6760   84.0360 C.3   322  ARG322      0.2205
     48  NE        38.1390   12.3440   83.5750 N.pl3 322  ARG322     -0.0865
     49  CZ        38.6800   12.7680   82.4400 C.cat 322  ARG322      0.5346
     50  NH1       37.9950   13.5680   81.6320 N.pl3 322  ARG322      0.1354
     51  NH2       39.9170   12.3970   82.1230 N.pl3 322  ARG322      0.1354
     52  N         36.5940   10.4660   88.7220 N.am  323  VAL323     -0.1977
     53  CA        37.2890   10.6910   89.9840 C.3   323  VAL323      0.1596
     54  C         38.7830   10.3780   89.8810 C.2   323  VAL323      0.2287
     55  O         39.2060    9.6340   88.9990 O.2   323  VAL323     -0.2864
     56  CB        36.6350    9.8780   91.1410 C.3   323  VAL323      0.0276
     57  CG1       35.1570   10.2360   91.2830 C.3   323  VAL323      0.0022
     58  CG2       36.7890    8.3800   90.9150 C.3   323  VAL323      0.0022
     59  N         39.4170    5.8120   92.8600 N.3   326  PHE326     -0.1241
     60  CA        38.2530    4.9530   92.6430 C.3   326  PHE326      0.1605
     61  C         38.3710    3.5160   93.1550 C.2   326  PHE326      0.2264
     62  O         39.4350    3.0790   93.6040 O.2   326  PHE326     -0.2867
     63  CB        37.7430    5.0280   91.1840 C.3   326  PHE326      0.0534
     64  CG        38.7080    4.5070   90.1540 C.ar  326  PHE326     -0.0203
     65  CD1       38.6090    3.1950   89.6970 C.ar  326  PHE326     -0.0042
     66  CD2       39.6970    5.3340   89.6200 C.ar  326  PHE326     -0.0042
     67  CE1       39.4870    2.7070   88.7430 C.ar  326  PHE326     -0.0003
     68  CE2       40.5840    4.8580   88.6620 C.ar  326  PHE326     -0.0003
     69  CZ        40.4770    3.5380   88.2160 C.ar  326  PHE326     -0.0000
     70  N         37.5870   -0.4420   92.2330 N.3   328  ARG328     -0.1245
     71  CA        37.3550   -1.3650   91.1370 C.3   328  ARG328      0.1563
     72  C         37.5260   -2.8220   91.5800 C.2   328  ARG328      0.2260
     73  O         38.3350   -3.1300   92.4610 O.2   328  ARG328     -0.2867
     74  CB        38.2700   -1.0020   89.9500 C.3   328  ARG328      0.0307
     75  CG        38.5670   -2.1190   88.9260 C.3   328  ARG328      0.0489
     76  CD        39.5170   -1.6480   87.8120 C.3   328  ARG328      0.2205
     77  NE        40.6870   -0.9300   88.3310 N.pl3 328  ARG328     -0.0865
     78  CZ        41.5560   -0.2350   87.5980 C.cat 328  ARG328      0.5346
     79  NH1       41.4320   -0.1520   86.2840 N.pl3 328  ARG328      0.1354
     80  NH2       42.5720    0.3810   88.1880 N.pl3 328  ARG328      0.1354
     81  N         38.9680   -5.9730   89.9810 N.3   330  GLU330     -0.1245
     82  CA        39.7600   -6.4570   88.8550 C.3   330  GLU330      0.1567
     83  C         39.6060   -7.9640   88.7190 C.2   330  GLU330      0.2260
     84  O         39.8740   -8.7110   89.6560 O.2   330  GLU330     -0.2867
     85  CB        41.2380   -6.0750   89.0090 C.3   330  GLU330      0.0388
     86  CG        42.1080   -6.3650   87.7760 C.3   330  GLU330      0.1160
     87  CD        41.8660   -5.4180   86.6000 C.2   330  GLU330      0.3649
     88  OE1       41.1330   -4.4170   86.7470 O.co2 330  GLU330     -0.2457
     89  OE2       42.4210   -5.6750   85.5120 O.co2 330  GLU330     -0.2457
     90  N         42.7000   -1.3010   76.1740 N.3   371  TRP371     -0.1241
     91  CA        43.0620   -0.5300   77.3690 C.3   371  TRP371      0.1605
     92  C         44.5730   -0.3650   77.5170 C.2   371  TRP371      0.2264
     93  O         45.0470    0.7140   77.8910 O.2   371  TRP371     -0.2867
     94  CB        42.4690   -1.1610   78.6380 C.3   371  TRP371      0.0550
     95  CG        43.0990   -2.4660   79.0270 C.ar  371  TRP371      0.0003
     96  CD1       42.7870   -3.6980   78.5420 C.ar  371  TRP371      0.0946
     97  CD2       44.1580   -2.6650   79.9760 C.ar  371  TRP371      0.0152
     98  NE1       43.5760   -4.6580   79.1320 N.ar  371  TRP371     -0.2442
     99  CE2       44.4290   -4.0520   80.0150 C.ar  371  TRP371      0.0810
    100  CE3       44.9020   -1.8080   80.8000 C.ar  371  TRP371      0.0012
    101  CZ2       45.4160   -4.6020   80.8440 C.ar  371  TRP371      0.0191
    102  CZ3       45.8800   -2.3560   81.6250 C.ar  371  TRP371      0.0001
    103  CH2       46.1260   -3.7390   81.6380 C.ar  371  TRP371      0.0015
    104  N         46.8770    3.1860   77.5630 N.3   375  GLN375     -0.1245
    105  CA        47.5990    3.4870   78.8080 C.3   375  GLN375      0.1566
    106  C         49.1280    3.5450   78.6600 C.2   375  GLN375      0.2260
    107  O         49.8240    3.9570   79.5870 O.2   375  GLN375     -0.2867
    108  CB        47.1990    2.4980   79.9110 C.3   375  GLN375      0.0367
    109  CG        45.7570    2.6590   80.3920 C.3   375  GLN375      0.0905
    110  CD        45.3280    1.5800   81.3740 C.2   375  GLN375      0.2608
    111  OE1       46.1550    0.8490   81.9160 O.2   375  GLN375     -0.2717
    112  NE2       44.0230    1.4830   81.6110 N.am  375  GLN375     -0.0878
    113  N         31.1460    5.0420   79.9310 N.3   407  GLU407     -0.1231
    114  CA        31.8000    3.7370   80.0630 C.3   407  GLU407      0.1699
    115  C         31.7950    3.3760   81.5430 C.2   407  GLU407      0.2592
    116  O         32.3400    4.1190   82.3640 O.2   407  GLU407     -0.2718
    117  CB        33.2350    3.7750   79.5270 C.3   407  GLU407      0.0402
    118  CG        33.9960    2.4410   79.6870 C.3   407  GLU407      0.1161
    119  CD        35.5020    2.6110   79.8280 C.2   407  GLU407      0.3649
    120  OE1       36.0680    3.5890   79.2990 O.co2 407  GLU407     -0.2457
    121  OE2       36.1310    1.7500   80.4660 O.co2 407  GLU407     -0.2457
    122  N         31.1590    2.2610   81.8930 N.am  408  PHE408     -0.1962
    123  CA        31.0960    1.8610   83.2990 C.3   408  PHE408      0.1771
    124  C         31.8860    0.6040   83.6530 C.2   408  PHE408      0.2619
    125  O         32.0980    0.3260   84.8360 O.2   408  PHE408     -0.2715
    126  CB        29.6550    1.8230   83.8360 C.3   408  PHE408      0.0574
    127  CG        28.7670    0.8050   83.1810 C.ar  408  PHE408     -0.0200
    128  CD1       28.0980    1.0990   81.9960 C.ar  408  PHE408     -0.0042
    129  CD2       28.5520   -0.4300   83.7780 C.ar  408  PHE408     -0.0042
    130  CE1       27.2540    0.1600   81.3980 C.ar  408  PHE408     -0.0003
    131  CE2       27.7110   -1.3730   83.1870 C.ar  408  PHE408     -0.0003
    132  CZ        27.0630   -1.0770   81.9950 C.ar  408  PHE408     -0.0000
    133  N         32.3090   -0.1440   82.6300 N.am  409  GLN409     -0.1963
    134  CA        33.2180   -1.2950   82.7930 C.3   409  GLN409      0.1733
    135  C         33.7140   -1.8230   81.4430 C.2   409  GLN409      0.2616
    136  O         33.1460   -1.5030   80.3990 O.2   409  GLN409     -0.2715
    137  CB        32.5530   -2.4290   83.5830 C.3   409  GLN409      0.0408
    138  CG        31.3640   -3.0430   82.8740 C.3   409  GLN409      0.0908
    139  CD        30.8390   -4.2510   83.5850 C.2   409  GLN409      0.2608
    140  OE1       30.7590   -4.2780   84.8120 O.2   409  GLN409     -0.2717
    141  NE2       30.4740   -5.2680   82.8200 N.am  409  GLN409     -0.0878
    142  N         34.7720   -2.6340   81.4700 N.am  410  ASN410     -0.1972
    143  CA        35.2770   -3.2550   80.2460 C.3   410  ASN410      0.1688
    144  C         35.5910   -4.7410   80.3840 C.2   410  ASN410      0.2292
    145  O         35.7150   -5.2580   81.4980 O.2   410  ASN410     -0.2864
    146  CB        36.4680   -2.4620   79.6610 C.3   410  ASN410      0.1181
    147  CG        37.7590   -2.5900   80.4820 C.2   410  ASN410      0.2629
    148  OD1       37.9080   -3.4680   81.3310 O.2   410  ASN410     -0.2716
    149  ND2       38.7140   -1.7090   80.1970 N.am  410  ASN410     -0.0877
    150  N         41.2590   -9.5830   81.1370 N.3   436  CYS436     -0.1235
    151  CA        40.8640   -8.9500   82.3990 C.3   436  CYS436      0.1677
    152  C         39.6100   -8.1150   82.2130 C.2   436  CYS436      0.2270
    153  O         39.3080   -7.6630   81.1110 O.2   436  CYS436     -0.2867
    154  CB        41.9920   -8.1030   83.0090 C.3   436  CYS436      0.0956
    155  SG        42.4600   -6.6820   82.0260 S.3   436  CYS436     -0.0801
    156  N         37.5190   -4.9040   84.2300 N.3   438  GLY438     -0.1225
    157  CA        37.5250   -3.9220   85.2970 C.3   438  GLY438      0.1811
    158  C         36.1160   -3.4650   85.5850 C.2   438  GLY438      0.2280
    159  O         35.4450   -2.9590   84.6980 O.2   438  GLY438     -0.2866
    160  N         34.0870   -0.8090   87.5690 N.3   440  GLY440     -0.1225
    161  CA        34.1760    0.4620   88.2920 C.3   440  GLY440      0.1811
    162  C         32.9170    0.7310   89.0910 C.2   440  GLY440      0.2280
    163  O         31.8590    0.9740   88.5160 O.2   440  GLY440     -0.2866
    164  N         32.1180    3.2520   91.2810 N.3   442  GLU442     -0.1231
    165  CA        31.6640    4.6410   91.1150 C.3   442  GLU442      0.1699
    166  C         30.8850    4.8100   89.8160 C.2   442  GLU442      0.2592
    167  O         29.9300    5.5970   89.7460 O.2   442  GLU442     -0.2718
    168  CB        32.8470    5.6100   91.0930 C.3   442  GLU442      0.0402
    169  CG        33.4460    5.9310   92.4440 C.3   442  GLU442      0.1161
    170  CD        34.5610    4.9840   92.8520 C.2   442  GLU442      0.3649
    171  OE1       34.8860    4.0420   92.0830 O.co2 442  GLU442     -0.2457
    172  OE2       35.1140    5.1890   93.9550 O.co2 442  GLU442     -0.2457
    173  N         31.3060    4.0730   88.7890 N.am  443  ARG443     -0.1980
    174  CA        30.6860    4.1550   87.4720 C.3   443  ARG443      0.1597
    175  C         29.3410    3.4220   87.4430 C.2   443  ARG443      0.2287
    176  O         28.3730    3.9340   86.8830 O.2   443  ARG443     -0.2864
    177  CB        31.6380    3.6360   86.3930 C.3   443  ARG443      0.0334
    178  CG        32.9290    4.4320   86.2520 C.3   443  ARG443      0.0492
    179  CD        32.7760    5.5700   85.2700 C.3   443  ARG443      0.2205
    180  NE        33.9840    6.3860   85.1510 N.pl3 443  ARG443     -0.0865
    181  CZ        34.8430    6.3290   84.1370 C.cat 443  ARG443      0.5346
    182  NH1       34.6540    5.4790   83.1380 N.pl3 443  ARG443      0.1354
    183  NH2       35.9020    7.1270   84.1240 N.pl3 443  ARG443      0.1354
@<TRIPOS>BOND
     1    90    91    1
     2    91    92    1
     3    91    94    1
     4    92    93    2
     5   104   105    1
     6    96    95   ar
     7    96    98   ar
     8    94    95    1
     9   106   105    1
    10   106   107    2
    11   105   108    1
    12    95    97   ar
    13    98    99   ar
    14   120   119   ar
    15   117   118    1
    16   117   114    1
    17   146   143    1
    18   146   147    1
    19   118   119    1
    20   119   121   ar
    21   108   109    1
    22   113   114    1
    23    97    99   ar
    24    97   100   ar
    25    99   101   ar
    26   114   115    1
    27   149   147   am
    28   143   144    1
    29   143   142    1
    30   144   145    2
    31   109   110    1
    32   136   135    2
    33   147   148    2
    34   100   102   ar
    35   101   103   ar
    36   153   152    2
    37   150   151    1
    38   110   112   am
    39   110   111    2
    40   130   132   ar
    41   130   128   ar
    42   135   142   am
    43   135   134    1
    44   115   122   am
    45   115   116    2
    46   102   103   ar
    47    50    49    1
    48   122   123    1
    49   132   131   ar
    50   128   127   ar
    51   155   154    1
    52    51    49    1
    53   152   151    1
    54   151   154    1
    55    49    48    2
    56   133   134    1
    57   133   124   am
    58   134   137    1
    59   141   139   am
    60   138   137    1
    61   138   139    1
    62   182   181    1
    63   127   129   ar
    64   127   126    1
    65   131   129   ar
    66   123   124    1
    67   123   126    1
    68    48    47    1
    69   139   140    2
    70   124   125    2
    71    21    20    1
    72    30    29   ar
    73    47    46    1
    74   183   181    1
    75   181   180    2
    76   156   157    1
    77    11    10    1
    78   159   158    2
    79    20    22    1
    80    20    19    2
    81    29    31   ar
    82    29    28    1
    83     5     2    1
    84    25    24    1
    85    25    26    2
    86   180   179    1
    87   179   178    1
    88   157   158    1
    89    46    45    1
    90    24    27    1
    91    24    23    1
    92    89    87   ar
    93    37    36    1
    94    37    38    1
    95    19    18    1
    96    18    17    1
    97    45    42    1
    98    27    28    1
    99    10     7    1
   100    35    34    2
   101    40    38   ar
   102     2     3    1
   103     2     1    1
   104    36    33    1
   105   178   177    1
   106    79    78    1
   107   177   174    1
   108    38    39   ar
   109     4     3    2
   110    87    88   ar
   111    87    86    1
   112    34    33    1
   113    34    41   am
   114   176   175    2
   115    42    41    1
   116    42    43    1
   117    17    16    1
   118    16    13    1
   119    33    32    1
   120     8     7    1
   121     8     9    2
   122     7     6    1
   123   175   174    1
   124   174   173    1
   125   160   161    1
   126    78    80    1
   127    78    77    2
   128    86    85    1
   129    76    77    1
   130    76    75    1
   131    43    44    2
   132    43    52   am
   133    69    68   ar
   134    69    67   ar
   135   161   162    1
   136    13    14    1
   137    13    12    1
   138    14    15    2
   139   163   162    2
   140    68    66   ar
   141    83    82    1
   142    83    84    2
   143    52    53    1
   144    67    65   ar
   145   173   166   am
   146    82    85    1
   147    82    81    1
   148    75    74    1
   149    55    54    2
   150    66    64   ar
   151    65    64   ar
   152   167   166    2
   153   166   165    1
   154    54    53    1
   155    74    71    1
   156    53    56    1
   157    64    63    1
   158    58    56    1
   159   168   165    1
   160   168   169    1
   161   165   164    1
   162    71    72    1
   163    71    70    1
   164    56    57    1
   165    63    60    1
   166    72    73    2
   167   171   170   ar
   168   169   170    1
   169    60    59    1
   170    60    61    1
   171   170   172   ar
   172    61    62    2
