@<TRIPOS>MOLECULE
tmp/2cjaA00.pdb
 202 192 0 0 0
SMALL
GASTEIGER

@<TRIPOS>ATOM
      1  N         53.8790   -0.6240   80.7300 N.3   232  HIS232     -0.1241
      2  CA        53.4340    0.7180   81.1440 C.3   232  HIS232      0.1621
      3  C         54.5660    1.7560   81.1850 C.2   232  HIS232      0.2264
      4  O         54.3250    2.9430   81.0040 O.2   232  HIS232     -0.2867
      5  CB        52.6870    0.6580   82.4810 C.3   232  HIS232      0.0745
      6  CG        51.3000    0.1050   82.3650 C.ar  232  HIS232      0.0817
      7  ND1       51.0040   -1.2220   82.6030 N.ar  232  HIS232     -0.2268
      8  CD2       50.1340    0.6930   82.0040 C.ar  232  HIS232      0.1154
      9  CE1       49.7110   -1.4210   82.4110 C.ar  232  HIS232      0.1986
     10  NE2       49.1620   -0.2750   82.0440 N.ar  232  HIS232     -0.2212
     11  N         47.8130    1.7290   89.1500 N.3   284  TYR284     -0.1227
     12  CA        47.2310    2.3470   87.9630 C.3   284  TYR284      0.1736
     13  C         46.2420    1.4170   87.2530 C.2   284  TYR284      0.2595
     14  O         45.0750    1.7720   87.0740 O.2   284  TYR284     -0.2718
     15  CB        48.3220    2.8260   86.9900 C.3   284  TYR284      0.0548
     16  CG        47.7540    3.4490   85.7270 C.ar  284  TYR284     -0.0200
     17  CD1       47.3780    4.7880   85.6950 C.ar  284  TYR284     -0.0009
     18  CD2       47.5860    2.6900   84.5670 C.ar  284  TYR284     -0.0009
     19  CE1       46.8570    5.3560   84.5380 C.ar  284  TYR284      0.0417
     20  CE2       47.0610    3.2470   83.4060 C.ar  284  TYR284      0.0417
     21  CZ        46.6970    4.5810   83.4020 C.ar  284  TYR284      0.1957
     22  OH        46.1750    5.1490   82.2610 O.3   284  TYR284     -0.2866
     23  N         46.7190    0.2420   86.8430 N.am  285  ALA285     -0.1980
     24  CA        45.8920   -0.7450   86.1320 C.3   285  ALA285      0.1597
     25  C         45.4740   -1.9140   87.0310 C.2   285  ALA285      0.2287
     26  O         44.6670   -2.7630   86.6350 O.2   285  ALA285     -0.2864
     27  CB        46.6160   -1.2450   84.8830 C.3   285  ALA285      0.0319
     28  N         46.1740   -4.8620   87.8210 N.3   287  CYS287     -0.1235
     29  CA        46.6540   -6.2430   87.5300 C.3   287  CYS287      0.1677
     30  C         48.1820   -6.4300   87.4190 C.2   287  CYS287      0.2270
     31  O         48.6960   -7.4870   87.8210 O.2   287  CYS287     -0.2867
     32  CB        45.9350   -6.8480   86.3070 C.3   287  CYS287      0.0956
     33  SG        46.2290   -6.0050   84.7510 S.3   287  CYS287     -0.0801
     34  N         44.9790    8.0310   89.5900 N.3   316  ARG316     -0.1245
     35  CA        45.1650    8.4280   88.2230 C.3   316  ARG316      0.1563
     36  C         45.0080    9.9500   88.1540 C.2   316  ARG316      0.2260
     37  O         44.0810   10.4770   88.7360 O.2   316  ARG316     -0.2867
     38  CB        44.0620    7.7460   87.4170 C.3   316  ARG316      0.0307
     39  CG        44.3460    7.5700   86.0020 C.3   316  ARG316      0.0489
     40  CD        43.2720    6.6950   85.4030 C.3   316  ARG316      0.2205
     41  NE        43.5800    5.2800   85.5740 N.pl3 316  ARG316     -0.0865
     42  CZ        43.1940    4.3440   84.7170 C.cat 316  ARG316      0.5346
     43  NH1       42.4900    4.6850   83.6340 N.pl3 316  ARG316      0.1354
     44  NH2       43.5270    3.0780   84.9250 N.pl3 316  ARG316      0.1354
     45  N         43.6370   12.6300   86.3070 N.3   318  GLU318     -0.1245
     46  CA        42.6900   12.8650   85.2060 C.3   318  GLU318      0.1567
     47  C         42.8170   14.2390   84.5680 C.2   318  GLU318      0.2260
     48  O         43.2100   15.2100   85.2210 O.2   318  GLU318     -0.2867
     49  CB        41.2450   12.6310   85.6580 C.3   318  GLU318      0.0388
     50  CG        40.9250   11.1620   85.9500 C.3   318  GLU318      0.1160
     51  CD        40.8390   10.3160   84.6860 C.2   318  GLU318      0.3649
     52  OE1       40.4990   10.8490   83.6120 O.co2 318  GLU318     -0.2457
     53  OE2       41.0930    9.1070   84.7650 O.co2 318  GLU318     -0.2457
     54  N         31.6450   11.8430   90.3240 N.3   325  ILE325     -0.1231
     55  CA        32.2520   10.5370   90.6100 C.3   325  ILE325      0.1692
     56  C         32.4900    9.6910   89.3490 C.2   325  ILE325      0.2592
     57  O         33.1480    8.6640   89.4170 O.2   325  ILE325     -0.2718
     58  CB        31.4820    9.7210   91.6870 C.3   325  ILE325      0.0266
     59  CG1       30.0840    9.3290   91.1900 C.3   325  ILE325      0.0019
     60  CG2       31.4150   10.5020   93.0050 C.3   325  ILE325      0.0020
     61  CD1       29.5680    8.0230   91.7900 C.3   325  ILE325      0.0001
     62  N         31.9690   10.1420   88.2070 N.am  326  GLU326     -0.1966
     63  CA        32.1740    9.4430   86.9370 C.3   326  GLU326      0.1733
     64  C         33.6270    9.5150   86.4550 C.2   326  GLU326      0.2616
     65  O         34.0400    8.7070   85.6270 O.2   326  GLU326     -0.2715
     66  CB        31.2240    9.9660   85.8500 C.3   326  GLU326      0.0429
     67  CG        31.6080   11.3160   85.2560 C.3   326  GLU326      0.1163
     68  CD        31.2240   12.4920   86.1410 C.2   326  GLU326      0.3649
     69  OE1       30.5070   12.2860   87.1440 O.co2 326  GLU326     -0.2457
     70  OE2       31.6330   13.6300   85.8260 O.co2 326  GLU326     -0.2457
     71  N         34.3860   10.4820   86.9780 N.am  327  ARG327     -0.1963
     72  CA        35.7700   10.7020   86.5720 C.3   327  ARG327      0.1729
     73  C         36.5940   11.2700   87.7300 C.2   327  ARG327      0.2616
     74  O         36.7200   12.4890   87.8820 O.2   327  ARG327     -0.2715
     75  CB        35.8100   11.6400   85.3630 C.3   327  ARG327      0.0348
     76  CG        37.0730   11.5600   84.5290 C.3   327  ARG327      0.0492
     77  CD        36.8780   12.3930   83.2800 C.3   327  ARG327      0.2205
     78  NE        38.0080   12.3470   82.3550 N.pl3 327  ARG327     -0.0865
     79  CZ        38.1390   13.1590   81.3030 C.cat 327  ARG327      0.5346
     80  NH1       37.2190   14.0890   81.0480 N.pl3 327  ARG327      0.1354
     81  NH2       39.1930   13.0480   80.5030 N.pl3 327  ARG327      0.1354
     82  N         37.1550   10.3710   88.5330 N.am  328  VAL328     -0.1977
     83  CA        37.8720   10.7220   89.7620 C.3   328  VAL328      0.1596
     84  C         39.3730   10.3710   89.6680 C.2   328  VAL328      0.2287
     85  O         39.7850    9.6350   88.7750 O.2   328  VAL328     -0.2864
     86  CB        37.2370   10.0120   91.0000 C.3   328  VAL328      0.0276
     87  CG1       35.7630   10.3340   91.1130 C.3   328  VAL328      0.0022
     88  CG2       37.4230    8.4980   90.9140 C.3   328  VAL328      0.0022
     89  N         39.9290    5.8640   92.7170 N.3   331  PHE331     -0.1241
     90  CA        38.7510    5.0030   92.5740 C.3   331  PHE331      0.1605
     91  C         38.9080    3.5900   93.1280 C.2   331  PHE331      0.2264
     92  O         40.0120    3.1600   93.4850 O.2   331  PHE331     -0.2867
     93  CB        38.2140    4.9960   91.1260 C.3   331  PHE331      0.0534
     94  CG        39.1670    4.4440   90.0990 C.ar  331  PHE331     -0.0203
     95  CD1       39.0900    3.1110   89.7080 C.ar  331  PHE331     -0.0042
     96  CD2       40.1050    5.2710   89.4810 C.ar  331  PHE331     -0.0042
     97  CE1       39.9680    2.5970   88.7530 C.ar  331  PHE331     -0.0003
     98  CE2       40.9860    4.7740   88.5190 C.ar  331  PHE331     -0.0003
     99  CZ        40.9160    3.4380   88.1470 C.ar  331  PHE331     -0.0000
    100  N         38.1830   -0.3880   92.4080 N.3   333  ARG333     -0.1245
    101  CA        37.9450   -1.3700   91.3710 C.3   333  ARG333      0.1563
    102  C         38.1890   -2.7890   91.8750 C.2   333  ARG333      0.2260
    103  O         39.1000   -3.0310   92.6690 O.2   333  ARG333     -0.2867
    104  CB        38.8340   -1.0540   90.1600 C.3   333  ARG333      0.0307
    105  CG        39.0650   -2.2070   89.1780 C.3   333  ARG333      0.0489
    106  CD        39.9530   -1.7850   88.0030 C.3   333  ARG333      0.2205
    107  NE        41.1890   -1.1320   88.4370 N.pl3 333  ARG333     -0.0865
    108  CZ        41.9920   -0.4390   87.6290 C.cat 333  ARG333      0.5346
    109  NH1       41.7010   -0.3240   86.3300 N.pl3 333  ARG333      0.1354
    110  NH2       43.0850    0.1520   88.1180 N.pl3 333  ARG333      0.1354
    111  N         39.4760   -6.0300   90.3570 N.3   335  GLU335     -0.1245
    112  CA        40.2250   -6.4100   89.1660 C.3   335  GLU335      0.1567
    113  C         40.1810   -7.9210   89.0200 C.2   335  GLU335      0.2260
    114  O         40.5320   -8.6460   89.9390 O.2   335  GLU335     -0.2867
    115  CB        41.6770   -5.9070   89.2260 C.3   335  GLU335      0.0388
    116  CG        42.5690   -6.3010   88.0160 C.3   335  GLU335      0.1160
    117  CD        42.2480   -5.5490   86.7250 C.2   335  GLU335      0.3649
    118  OE1       41.4340   -4.5980   86.7540 O.co2 335  GLU335     -0.2457
    119  OE2       42.8320   -5.8940   85.6630 O.co2 335  GLU335     -0.2457
    120  N         31.5850    5.0180   79.4810 N.3   395  GLU395     -0.1231
    121  CA        32.2310    3.7070   79.6160 C.3   395  GLU395      0.1699
    122  C         32.2360    3.3540   81.0970 C.2   395  GLU395      0.2592
    123  O         32.7750    4.1030   81.9140 O.2   395  GLU395     -0.2718
    124  CB        33.6600    3.7400   79.0550 C.3   395  GLU395      0.0402
    125  CG        34.4500    2.4010   79.1360 C.3   395  GLU395      0.1161
    126  CD        35.4460    2.3450   80.2900 C.2   395  GLU395      0.3649
    127  OE1       35.0230    2.4170   81.4680 O.co2 395  GLU395     -0.2457
    128  OE2       36.6660    2.2060   80.0240 O.co2 395  GLU395     -0.2457
    129  N         31.6060    2.2410   81.4480 N.am  396  PHE396     -0.1962
    130  CA        31.4940    1.8510   82.8520 C.3   396  PHE396      0.1771
    131  C         31.9960    0.4350   83.1350 C.2   396  PHE396      0.2619
    132  O         32.0320    0.0130   84.2910 O.2   396  PHE396     -0.2715
    133  CB        30.0520    2.0190   83.3510 C.3   396  PHE396      0.0574
    134  CG        29.0820    1.0250   82.7760 C.ar  396  PHE396     -0.0200
    135  CD1       28.6970   -0.0930   83.5090 C.ar  396  PHE396     -0.0042
    136  CD2       28.5550    1.1990   81.5040 C.ar  396  PHE396     -0.0042
    137  CE1       27.8030   -1.0160   82.9830 C.ar  396  PHE396     -0.0003
    138  CE2       27.6640    0.2760   80.9720 C.ar  396  PHE396     -0.0003
    139  CZ        27.2870   -0.8330   81.7130 C.ar  396  PHE396     -0.0000
    140  N         32.3790   -0.2880   82.0830 N.am  397  GLN397     -0.1963
    141  CA        32.8080   -1.6900   82.2060 C.3   397  GLN397      0.1733
    142  C         33.6190   -2.1270   80.9860 C.2   397  GLN397      0.2616
    143  O         33.2710   -1.8010   79.8480 O.2   397  GLN397     -0.2715
    144  CB        31.5820   -2.6110   82.3770 C.3   397  GLN397      0.0408
    145  CG        31.8990   -4.0460   82.7840 C.3   397  GLN397      0.0908
    146  CD        32.7720   -4.1090   84.0200 C.2   397  GLN397      0.2608
    147  OE1       32.3870   -3.6350   85.0870 O.2   397  GLN397     -0.2717
    148  NE2       33.9610   -4.6890   83.8790 N.am  397  GLN397     -0.0878
    149  N         34.6950   -2.8690   81.2260 N.am  398  ASN398     -0.1972
    150  CA        35.4480   -3.4770   80.1310 C.3   398  ASN398      0.1688
    151  C         35.8800   -4.9280   80.3700 C.2   398  ASN398      0.2292
    152  O         35.9900   -5.3690   81.5160 O.2   398  ASN398     -0.2864
    153  CB        36.6040   -2.5630   79.6610 C.3   398  ASN398      0.1181
    154  CG        37.9080   -2.7400   80.4480 C.2   398  ASN398      0.2629
    155  OD1       38.0200   -3.5350   81.4010 O.2   398  ASN398     -0.2716
    156  ND2       38.9240   -1.9880   80.0290 N.am  398  ASN398     -0.0877
    157  N         51.2910  -10.3450   78.8590 N.3   406  TYR406     -0.1241
    158  CA        51.7570  -10.4880   80.2320 C.3   406  TYR406      0.1605
    159  C         52.6090  -11.7490   80.4930 C.2   406  TYR406      0.2264
    160  O         53.6720  -11.6400   81.1000 O.2   406  TYR406     -0.2867
    161  CB        50.5990  -10.3390   81.2180 C.3   406  TYR406      0.0534
    162  CG        50.1610   -8.9010   81.4010 C.ar  406  TYR406     -0.0201
    163  CD1       49.2980   -8.2870   80.4910 C.ar  406  TYR406     -0.0009
    164  CD2       50.6130   -8.1540   82.4870 C.ar  406  TYR406     -0.0009
    165  CE1       48.9010   -6.9590   80.6600 C.ar  406  TYR406      0.0417
    166  CE2       50.2150   -6.8300   82.6600 C.ar  406  TYR406      0.0417
    167  CZ        49.3730   -6.2430   81.7420 C.ar  406  TYR406      0.1957
    168  OH        48.9890   -4.9330   81.9330 O.3   406  TYR406     -0.2866
    169  N         41.8220   -9.6710   81.4300 N.3   424  CYS424     -0.1235
    170  CA        41.4730   -8.9890   82.6700 C.3   424  CYS424      0.1677
    171  C         40.2210   -8.1490   82.4480 C.2   424  CYS424      0.2270
    172  O         39.8710   -7.8290   81.3140 O.2   424  CYS424     -0.2867
    173  CB        42.6240   -8.1220   83.1850 C.3   424  CYS424      0.0956
    174  SG        42.9210   -6.6480   82.1960 S.3   424  CYS424     -0.0801
    175  N         38.0150   -5.0110   84.7960 N.3   426  GLY426     -0.1225
    176  CA        37.9670   -4.2330   86.0180 C.3   426  GLY426      0.1811
    177  C         36.5750   -3.6890   86.2660 C.2   426  GLY426      0.2280
    178  O         36.0130   -3.0300   85.4070 O.2   426  GLY426     -0.2866
    179  N         34.6940   -1.0050   88.0530 N.3   428  GLY428     -0.1225
    180  CA        34.8310    0.2800   88.7240 C.3   428  GLY428      0.1811
    181  C         33.5560    0.6340   89.4490 C.2   428  GLY428      0.2280
    182  O         32.5170    0.8310   88.8250 O.2   428  GLY428     -0.2866
    183  N         32.7300    3.3410   91.3180 N.3   430  GLU430     -0.1231
    184  CA        32.2960    4.7190   91.0450 C.3   430  GLU430      0.1699
    185  C         31.4990    4.8220   89.7410 C.2   430  GLU430      0.2592
    186  O         30.4620    5.4750   89.6980 O.2   430  GLU430     -0.2718
    187  CB        33.4930    5.6790   90.9930 C.3   430  GLU430      0.0402
    188  CG        34.0680    6.0680   92.3550 C.3   430  GLU430      0.1161
    189  CD        35.0920    5.0730   92.8750 C.2   430  GLU430      0.3649
    190  OE1       35.3500    4.0500   92.1920 O.co2 430  GLU430     -0.2457
    191  OE2       35.6420    5.3110   93.9760 O.co2 430  GLU430     -0.2457
    192  N         31.9980    4.1720   88.6900 N.am  431  ARG431     -0.1980
    193  CA        31.3700    4.1840   87.3640 C.3   431  ARG431      0.1597
    194  C         30.0110    3.4960   87.3570 C.2   431  ARG431      0.2287
    195  O         29.0700    4.0150   86.7860 O.2   431  ARG431     -0.2864
    196  CB        32.2830    3.4990   86.3400 C.3   431  ARG431      0.0334
    197  CG        33.5300    4.2690   86.0070 C.3   431  ARG431      0.0492
    198  CD        33.2380    5.4280   85.0790 C.3   431  ARG431      0.2205
    199  NE        34.4160    6.2760   84.9120 N.pl3 431  ARG431     -0.0865
    200  CZ        35.3050    6.1540   83.9300 C.cat 431  ARG431      0.5346
    201  NH1       35.1690    5.2040   83.0100 N.pl3 431  ARG431      0.1354
    202  NH2       36.3430    6.9780   83.8760 N.pl3 431  ARG431      0.1354
@<TRIPOS>BOND
     1   157   158    1
     2   124   125    1
     3   124   121    1
     4   125   126    1
     5   120   121    1
     6   121   122    1
     7   153   150    1
     8   153   154    1
     9   143   142    2
    10   128   126   ar
    11   156   154   am
    12   150   151    1
    13   150   149    1
    14   158   159    1
    15   158   161    1
    16   126   127   ar
    17   151   152    2
    18   154   155    2
    19   163   165   ar
    20   163   162   ar
    21   159   160    2
    22    81    79    1
    23   165   167   ar
    24     1     2    1
    25   138   136   ar
    26   138   139   ar
    27   142   149   am
    28   142   141    1
    29     4     3    2
    30    80    79    1
    31   122   129   am
    32   122   123    2
    33     2     3    1
    34     2     5    1
    35   161   162    1
    36    79    78    2
    37   172   171    2
    38   162   164   ar
    39   169   170    1
    40   129   130    1
    41   136   134   ar
    42   139   137   ar
    43   167   168    1
    44   167   166   ar
    45     8    10   ar
    46     8     6   ar
    47    10     9   ar
    48   140   141    1
    49   140   131   am
    50   174   173    1
    51   141   144    1
    52    22    21    1
    53    78    77    1
    54     6     5    1
    55     6     7   ar
    56   144   145    1
    57     9     7   ar
    58   171   170    1
    59   164   166   ar
    60   170   173    1
    61   134   133    1
    62   134   135   ar
    63   145   146    1
    64   130   131    1
    65   130   133    1
    66   137   135   ar
    67   201   200    1
    68   131   132    2
    69    77    76    1
    70    21    20   ar
    71    21    19   ar
    72    20    18   ar
    73    52    51   ar
    74    43    42    1
    75   202   200    1
    76   148   146   am
    77   200   199    2
    78   146   147    2
    79    76    75    1
    80    19    17   ar
    81    18    16   ar
    82    47    46    1
    83    47    48    2
    84    51    53   ar
    85    51    50    1
    86    42    44    1
    87    42    41    2
    88    33    32    1
    89   175   176    1
    90    27    24    1
    91   199   198    1
    92   198   197    1
    93    46    49    1
    94    46    45    1
    95    67    66    1
    96    67    68    1
    97    75    72    1
    98    40    41    1
    99    40    39    1
   100   178   177    2
   101    65    64    2
   102    49    50    1
   103   119   117   ar
   104    17    16   ar
   105    16    15    1
   106    70    68   ar
   107    66    63    1
   108    39    38    1
   109   197   196    1
   110   176   177    1
   111    24    23    1
   112    24    25    1
   113    68    69   ar
   114    32    29    1
   115   109   108    1
   116   196   193    1
   117    64    63    1
   118    64    71   am
   119    72    71    1
   120    72    73    1
   121    26    25    2
   122   117   118   ar
   123   117   116    1
   124   195   194    2
   125    23    13   am
   126    63    62    1
   127    15    12    1
   128    14    13    2
   129    13    12    1
   130   194   193    1
   131   193   192    1
   132    38    35    1
   133    30    29    1
   134    30    31    2
   135    29    28    1
   136   108   110    1
   137   108   107    2
   138    73    74    2
   139    73    82   am
   140    12    11    1
   141   106   107    1
   142   106   105    1
   143   116   115    1
   144   179   180    1
   145    99    98   ar
   146    99    97   ar
   147    36    35    1
   148    36    37    2
   149    62    56   am
   150    35    34    1
   151    98    96   ar
   152    82    83    1
   153   192   185   am
   154   180   181    1
   155    97    95   ar
   156    85    84    2
   157   182   181    2
   158   113   112    1
   159   113   114    2
   160   112   115    1
   161   112   111    1
   162   105   104    1
   163    56    57    2
   164    56    55    1
   165    96    94   ar
   166    84    83    1
   167   186   185    2
   168    95    94   ar
   169   185   184    1
   170    83    86    1
   171    94    93    1
   172   104   101    1
   173    54    55    1
   174    55    58    1
   175    88    86    1
   176   187   184    1
   177   187   188    1
   178    86    87    1
   179   184   183    1
   180    93    90    1
   181    59    58    1
   182    59    61    1
   183   101   102    1
   184   101   100    1
   185    58    60    1
   186   102   103    2
   187   190   189   ar
   188   188   189    1
   189    90    89    1
   190    90    91    1
   191   189   191   ar
   192    91    92    2
