@<TRIPOS>MOLECULE
tmp/2cjbB00.pdb
 89 80 0 0 0
SMALL
GASTEIGER

@<TRIPOS>ATOM
      1  N         47.0560    6.3750  109.1760 N.3   297  ALA297     -0.1245
      2  CA        46.3550    6.0900  110.4150 C.3   297  ALA297      0.1562
      3  C         44.8850    5.7550  110.1890 C.2   297  ALA297      0.2260
      4  O         44.2060    5.3060  111.1160 O.2   297  ALA297     -0.2867
      5  CB        46.5080    7.2470  111.3720 C.3   297  ALA297      0.0290
      6  N         41.7830    6.9490  110.1950 N.3   299  CYS299     -0.1235
      7  CA        40.6690    7.8280  110.6100 C.3   299  CYS299      0.1677
      8  C         40.8490    9.2920  110.1710 C.2   299  CYS299      0.2270
      9  O         39.8670    9.9650  109.8430 O.2   299  CYS299     -0.2867
     10  CB        40.4430    7.7700  112.1200 C.3   299  CYS299      0.0956
     11  SG        42.0080    7.7670  113.0150 S.3   299  CYS299     -0.0801
     12  N         53.1710    2.4600  105.6170 N.3   329  ARG329     -0.1245
     13  CA        54.1100    3.0250  106.5910 C.3   329  ARG329      0.1563
     14  C         55.5310    2.5800  106.2840 C.2   329  ARG329      0.2260
     15  O         55.7570    1.4150  105.9600 O.2   329  ARG329     -0.2867
     16  CB        53.7640    2.5550  107.9950 C.3   329  ARG329      0.0307
     17  CG        52.3250    2.8000  108.3840 C.3   329  ARG329      0.0489
     18  CD        52.0780    2.4890  109.8470 C.3   329  ARG329      0.2205
     19  NE        50.9120    3.2220  110.3240 N.pl3 329  ARG329     -0.0865
     20  CZ        50.3640    3.0550  111.5240 C.cat 329  ARG329      0.5346
     21  NH1       50.8730    2.1620  112.3690 N.pl3 329  ARG329      0.1354
     22  NH2       49.3070    3.7870  111.8760 N.pl3 329  ARG329      0.1354
     23  N         43.6110   -2.7900  107.0990 N.3   346  ARG346     -0.1245
     24  CA        43.0380   -2.5690  108.4090 C.3   346  ARG346      0.1563
     25  C         41.5610   -2.1810  108.3270 C.2   346  ARG346      0.2260
     26  O         41.1240   -1.5330  107.3920 O.2   346  ARG346     -0.2867
     27  CB        43.8770   -1.5160  109.1420 C.3   346  ARG346      0.0307
     28  CG        43.2130   -0.7910  110.3030 C.3   346  ARG346      0.0489
     29  CD        44.1610    0.2600  110.9150 C.3   346  ARG346      0.2205
     30  NE        44.7810    1.1190  109.8970 N.pl3 346  ARG346     -0.0865
     31  CZ        45.7540    2.0050  110.1240 C.cat 346  ARG346      0.5346
     32  NH1       46.2470    2.1890  111.3470 N.pl3 346  ARG346      0.1354
     33  NH2       46.2400    2.7020  109.1060 N.pl3 346  ARG346      0.1354
     34  N         39.3300    0.1100  110.0900 N.3   348  GLU348     -0.1245
     35  CA        39.3530    1.2820  110.9690 C.3   348  GLU348      0.1567
     36  C         37.9660    1.5470  111.5350 C.2   348  GLU348      0.2260
     37  O         37.0090    1.6720  110.7860 O.2   348  GLU348     -0.2867
     38  CB        39.8540    2.5110  110.2040 C.3   348  GLU348      0.0388
     39  CG        39.9790    3.7950  111.0440 C.3   348  GLU348      0.1160
     40  CD        40.9240    3.6330  112.2230 C.2   348  GLU348      0.3649
     41  OE1       41.5410    2.5400  112.3290 O.co2 348  GLU348     -0.2457
     42  OE2       41.0520    4.5830  113.0440 O.co2 348  GLU348     -0.2457
     43  N         48.4520    5.9980  120.4780 N.3   389  TRP389     -0.1241
     44  CA        48.7180    5.9810  119.0350 C.3   389  TRP389      0.1605
     45  C         48.8360    7.3900  118.4260 C.2   389  TRP389      0.2264
     46  O         49.6050    7.5940  117.4840 O.2   389  TRP389     -0.2867
     47  CB        47.6150    5.2100  118.3050 C.3   389  TRP389      0.0550
     48  CG        46.3410    6.0060  118.2070 C.ar  389  TRP389      0.0003
     49  CD1       45.3830    6.1150  119.1570 C.ar  389  TRP389      0.0946
     50  CD2       45.9180    6.8410  117.1130 C.ar  389  TRP389      0.0152
     51  NE1       44.3740    6.9430  118.7260 N.ar  389  TRP389     -0.2442
     52  CE2       44.6780    7.4030  117.4740 C.ar  389  TRP389      0.0810
     53  CE3       46.4650    7.1610  115.8620 C.ar  389  TRP389      0.0012
     54  CZ2       43.9690    8.2630  116.6280 C.ar  389  TRP389      0.0191
     55  CZ3       45.7560    8.0140  115.0180 C.ar  389  TRP389      0.0001
     56  CH2       44.5250    8.5520  115.4060 C.ar  389  TRP389      0.0015
     57  N         52.6430    8.7120  116.8350 N.3   393  GLN393     -0.1245
     58  CA        52.6980    9.0530  115.4070 C.3   393  GLN393      0.1566
     59  C         52.9760   10.5450  115.1840 C.2   393  GLN393      0.2260
     60  O         53.2200   10.9910  114.0550 O.2   393  GLN393     -0.2867
     61  CB        51.3960    8.6340  114.7150 C.3   393  GLN393      0.0367
     62  CG        51.1140    7.1150  114.7400 C.3   393  GLN393      0.0905
     63  CD        49.6600    6.7500  114.3950 C.2   393  GLN393      0.2608
     64  OE1       48.8600    7.6070  114.0110 O.2   393  GLN393     -0.2717
     65  NE2       49.3220    5.4700  114.5370 N.am  393  GLN393     -0.0878
     66  N         44.3070   -2.6390  118.5920 N.3   428  ASN428     -0.1240
     67  CA        44.2420   -1.5820  119.6070 C.3   428  ASN428      0.1653
     68  C         42.8730   -0.9310  119.7850 C.2   428  ASN428      0.2266
     69  O         42.0090   -1.0150  118.9120 O.2   428  ASN428     -0.2867
     70  CB        45.3330   -0.5260  119.4000 C.3   428  ASN428      0.1155
     71  CG        45.0890    0.3680  118.1870 C.2   428  ASN428      0.2627
     72  OD1       45.8770    1.2730  117.9170 O.2   428  ASN428     -0.2716
     73  ND2       44.0060    0.1260  117.4540 N.am  428  ASN428     -0.0877
     74  N         41.5270    2.9300  121.3880 N.3   430  SER430     -0.1217
     75  CA        41.9770    4.2100  121.9230 C.3   430  SER430      0.1889
     76  C         40.8470    5.1850  122.1850 C.2   430  SER430      0.2288
     77  O         39.9430    5.3850  121.3640 O.2   430  SER430     -0.2866
     78  CB        42.9920    4.8850  121.0010 C.3   430  SER430      0.2089
     79  OG        43.7520    3.9430  120.2530 O.3   430  SER430     -0.2183
     80  N         38.7290    5.4120  118.5830 N.3   454  CYS454     -0.1235
     81  CA        38.9870    4.6060  117.4010 C.3   454  CYS454      0.1677
     82  C         39.7460    3.3100  117.7370 C.2   454  CYS454      0.2270
     83  O         40.3970    3.2030  118.7790 O.2   454  CYS454     -0.2867
     84  CB        39.7010    5.4220  116.3050 C.3   454  CYS454      0.0956
     85  SG        41.5210    5.5500  116.3710 S.3   454  CYS454     -0.0801
     86  N         41.7780    0.0080  115.4430 N.3   456  GLY456     -0.1225
     87  CA        42.2030   -0.5300  114.1670 C.3   456  GLY456      0.1811
     88  C         42.5710   -1.9990  114.2920 C.2   456  GLY456      0.2280
     89  O         43.2770   -2.4110  115.2220 O.2   456  GLY456     -0.2866
@<TRIPOS>BOND
     1    12    13    1
     2    15    14    2
     3    14    13    1
     4    13    16    1
     5    23    24    1
     6    26    25    2
     7    16    17    1
     8    25    24    1
     9    17    18    1
    10    24    27    1
    11    33    31    1
    12    27    28    1
    13     1     2    1
    14     9     8    2
    15    18    19    1
    16    30    31    2
    17    30    29    1
    18    34    35    1
    19    31    32    1
    20     8     7    1
    21     3     2    1
    22     3     4    2
    23     6     7    1
    24    38    35    1
    25    38    39    1
    26    28    29    1
    27    19    20    2
    28     2     5    1
    29     7    10    1
    30    37    36    2
    31    35    36    1
    32    39    40    1
    33    20    22    1
    34    20    21    1
    35    10    11    1
    36    40    41   ar
    37    40    42   ar
    38    64    63    2
    39    60    59    2
    40    87    88    1
    41    87    86    1
    42    88    89    2
    43    63    65   am
    44    63    62    1
    45    61    62    1
    46    61    58    1
    47    55    56   ar
    48    55    53   ar
    49    59    58    1
    50    56    54   ar
    51    58    57    1
    52    53    50   ar
    53    84    85    1
    54    84    81    1
    55    54    52   ar
    56    50    52   ar
    57    50    48   ar
    58    81    82    1
    59    81    80    1
    60    73    71   am
    61    52    51   ar
    62    46    45    2
    63    82    83    2
    64    72    71    2
    65    71    70    1
    66    48    47    1
    67    48    49   ar
    68    47    44    1
    69    45    44    1
    70    66    67    1
    71    51    49   ar
    72    69    68    2
    73    44    43    1
    74    70    67    1
    75    67    68    1
    76    79    78    1
    77    78    75    1
    78    77    76    2
    79    74    75    1
    80    75    76    1
