@<TRIPOS>MOLECULE
tmp/2cjeA00.pdb
 180 168 0 0 0
SMALL
GASTEIGER

@<TRIPOS>ATOM
      1  N         -5.4820   29.5200    6.2580 N.3    14  GLN14      -0.1245
      2  CA        -5.3420   29.8130    4.8300 C.3    14  GLN14       0.1566
      3  C         -4.5150   28.7740    4.1410 C.2    14  GLN14       0.2260
      4  O         -4.8840   28.2620    3.1080 O.2    14  GLN14      -0.2867
      5  CB        -4.7150   31.1830    4.6450 C.3    14  GLN14       0.0367
      6  CG        -4.8110   31.7070    3.2140 C.3    14  GLN14       0.0905
      7  CD        -6.2410   31.8010    2.6970 C.2    14  GLN14       0.2608
      8  OE1       -6.5880   31.1670    1.6870 O.2    14  GLN14      -0.2717
      9  NE2       -7.0760   32.5780    3.3850 N.am   14  GLN14      -0.0878
     10  N         -6.4450   25.5220    3.8490 N.3    17  LEU17      -0.1231
     11  CA        -7.4660   25.6440    2.7920 C.3    17  LEU17       0.1693
     12  C         -6.8350   25.5750    1.3940 C.2    17  LEU17       0.2592
     13  O         -7.3170   24.8460    0.5270 O.2    17  LEU17      -0.2718
     14  CB        -8.2390   26.9520    2.9650 C.3    17  LEU17       0.0284
     15  CG        -9.1590   27.4060    1.8430 C.3    17  LEU17       0.0019
     16  CD1      -10.2540   26.3550    1.5400 C.3    17  LEU17       0.0001
     17  CD2       -9.7440   28.7340    2.2340 C.3    17  LEU17       0.0001
     18  N         -5.7280   26.2970    1.1930 N.am   18  ASN18      -0.1974
     19  CA        -4.9830   26.2150   -0.0560 C.3    18  ASN18       0.1688
     20  C         -4.4660   24.8060   -0.3500 C.2    18  ASN18       0.2292
     21  O         -4.3770   24.4070   -1.5180 O.2    18  ASN18      -0.2864
     22  CB        -3.8000   27.2080   -0.0560 C.3    18  ASN18       0.1181
     23  CG        -4.2570   28.6620   -0.0790 C.2    18  ASN18       0.2629
     24  OD1       -5.4700   28.9430   -0.0560 O.2    18  ASN18      -0.2716
     25  ND2       -3.2960   29.5850   -0.0790 N.am   18  ASN18      -0.0877
     26  N         -7.2030   22.6840   -1.7060 N.3    21  ILE21      -0.1245
     27  CA        -7.3390   22.8640   -3.1530 C.3    21  ILE21       0.1561
     28  C         -6.1870   22.1980   -3.9470 C.2    21  ILE21       0.2260
     29  O         -6.4690   21.4660   -4.8840 O.2    21  ILE21      -0.2867
     30  CB        -7.5250   24.3630   -3.5130 C.3    21  ILE21       0.0252
     31  CG1       -8.8910   24.8330   -3.0030 C.3    21  ILE21       0.0019
     32  CG2       -7.4020   24.6260   -5.0290 C.3    21  ILE21       0.0019
     33  CD1       -8.9450   26.3160   -2.7450 C.3    21  ILE21       0.0001
     34  N          1.2460   27.4770   -7.4780 N.3    29  ARG29      -0.1245
     35  CA         0.6910   28.8400   -7.6010 C.3    29  ARG29       0.1563
     36  C          1.7950   29.8530   -7.8030 C.2    29  ARG29       0.2260
     37  O          2.8920   29.6380   -7.3310 O.2    29  ARG29      -0.2867
     38  CB        -0.0980   29.2210   -6.3660 C.3    29  ARG29       0.0307
     39  CG        -1.2590   28.2810   -6.0850 C.3    29  ARG29       0.0489
     40  CD        -2.5160   28.7200   -6.7650 C.3    29  ARG29       0.2205
     41  NE        -2.4800   28.7070   -8.2220 N.pl3  29  ARG29      -0.0865
     42  CZ        -2.6250   27.6220   -8.9830 C.cat  29  ARG29       0.5346
     43  NH1       -2.8170   26.4300   -8.4390 N.pl3  29  ARG29       0.1354
     44  NH2       -2.5570   27.7360  -10.3100 N.pl3  29  ARG29       0.1354
     45  N         -2.3330   35.2000   -7.3170 N.3    34  TRP34      -0.1241
     46  CA        -2.9700   35.8110   -6.1390 C.3    34  TRP34       0.1605
     47  C         -3.3280   37.2710   -6.3980 C.2    34  TRP34       0.2264
     48  O         -4.3440   37.7800   -5.9170 O.2    34  TRP34      -0.2867
     49  CB        -2.0560   35.6990   -4.9060 C.3    34  TRP34       0.0550
     50  CG        -1.6450   34.3010   -4.6050 C.ar   34  TRP34       0.0003
     51  CD1       -0.3720   33.7690   -4.6860 C.ar   34  TRP34       0.0946
     52  CD2       -2.5040   33.2280   -4.1790 C.ar   34  TRP34       0.0152
     53  NE1       -0.4030   32.4300   -4.3300 N.ar   34  TRP34      -0.2442
     54  CE2       -1.6880   32.0770   -4.0040 C.ar   34  TRP34       0.0810
     55  CE3       -3.8680   33.1340   -3.9050 C.ar   34  TRP34       0.0012
     56  CZ2       -2.2040   30.8370   -3.5900 C.ar   34  TRP34       0.0191
     57  CZ3       -4.3870   31.8890   -3.4920 C.ar   34  TRP34       0.0001
     58  CH2       -3.5430   30.7600   -3.3410 C.ar   34  TRP34       0.0015
     59  N        -11.7740   39.9550   -7.1070 N.3    41  GLU41      -0.1245
     60  CA       -12.6120   40.2490   -5.9630 C.3    41  GLU41       0.1567
     61  C        -12.7980   41.7580   -5.7970 C.2    41  GLU41       0.2260
     62  O        -13.7400   42.1990   -5.1880 O.2    41  GLU41      -0.2867
     63  CB       -12.0140   39.6760   -4.6730 C.3    41  GLU41       0.0388
     64  CG       -11.8520   38.1820   -4.6430 C.3    41  GLU41       0.1160
     65  CD       -13.1470   37.4530   -4.8500 C.2    41  GLU41       0.3649
     66  OE1      -14.1570   37.9510   -4.3350 O.co2  41  GLU41      -0.2457
     67  OE2      -13.1570   36.3920   -5.5270 O.co2  41  GLU41      -0.2457
     68  N        -15.7240   42.5570   -8.0020 N.3    44  GLU44      -0.1245
     69  CA       -16.8770   42.0380   -7.2920 C.3    44  GLU44       0.1567
     70  C        -17.3130   43.0190   -6.1940 C.2    44  GLU44       0.2260
     71  O        -18.4900   43.3480   -6.0380 O.2    44  GLU44      -0.2867
     72  CB       -16.5260   40.7000   -6.6410 C.3    44  GLU44       0.0388
     73  CG       -16.5730   39.5070   -7.5530 C.3    44  GLU44       0.1160
     74  CD       -16.2760   38.2240   -6.7820 C.2    44  GLU44       0.3649
     75  OE1      -15.4130   37.4260   -7.2230 O.co2  44  GLU44      -0.2457
     76  OE2      -16.9090   38.0030   -5.7230 O.co2  44  GLU44      -0.2457
     77  N        -16.7910   40.2600    0.1760 N.3    69  GLU69      -0.1245
     78  CA       -15.7630   40.5670   -0.7710 C.3    69  GLU69       0.1567
     79  C        -14.4390   40.9670   -0.1100 C.2    69  GLU69       0.2260
     80  O        -13.3740   40.5570   -0.5760 O.2    69  GLU69      -0.2867
     81  CB       -16.2460   41.6290   -1.7440 C.3    69  GLU69       0.0388
     82  CG       -17.5640   41.3050   -2.4660 C.3    69  GLU69       0.1160
     83  CD       -17.6510   39.9500   -3.1540 C.2    69  GLU69       0.3649
     84  OE1      -16.6880   39.1340   -3.0750 O.co2  69  GLU69      -0.2457
     85  OE2      -18.7280   39.7040   -3.8020 O.co2  69  GLU69      -0.2457
     86  N        -12.9280   37.8390    1.0060 N.3    72  ASP72      -0.1239
     87  CA       -12.3690   37.1440   -0.1390 C.3    72  ASP72       0.1674
     88  C        -10.9730   37.7280   -0.5280 C.2    72  ASP72       0.2266
     89  O        -10.0410   36.9870   -0.8090 O.2    72  ASP72      -0.2867
     90  CB       -13.3290   37.1990   -1.3410 C.3    72  ASP72       0.1410
     91  CG       -14.5900   36.3930   -1.1280 C.2    72  ASP72       0.3668
     92  OD1      -14.6010   35.5210   -0.2200 O.co2  72  ASP72      -0.2456
     93  OD2      -15.5870   36.6530   -1.8500 O.co2  72  ASP72      -0.2456
     94  N         -8.4410   36.4710    2.0100 N.3    75  HIS75      -0.1226
     95  CA        -7.9880   35.0990    1.7230 C.3    75  HIS75       0.1752
     96  C         -6.8090   35.1130    0.7850 C.2    75  HIS75       0.2596
     97  O         -5.7930   34.5080    1.0390 O.2    75  HIS75      -0.2718
     98  CB        -9.1160   34.2450    1.0610 C.3    75  HIS75       0.0759
     99  CG       -10.0670   33.6240    2.0430 C.ar   75  HIS75       0.0818
    100  ND1      -11.0210   34.3520    2.7210 N.ar   75  HIS75      -0.2268
    101  CD2      -10.2000   32.3360    2.4620 C.ar   75  HIS75       0.1154
    102  CE1      -11.6950   33.5310    3.5190 C.ar   75  HIS75       0.1986
    103  NE2      -11.2100   32.3050    3.3910 N.ar   75  HIS75      -0.2212
    104  N         -6.9910   35.8050   -0.3200 N.am   76  PHE76      -0.1976
    105  CA        -6.0380   35.8390   -1.4170 C.3    76  PHE76       0.1639
    106  C         -4.7890   36.6470   -1.0880 C.2    76  PHE76       0.2290
    107  O         -3.7260   36.3540   -1.6000 O.2    76  PHE76      -0.2864
    108  CB        -6.7060   36.3890   -2.6610 C.3    76  PHE76       0.0560
    109  CG        -7.7260   35.4590   -3.2720 C.ar   76  PHE76      -0.0200
    110  CD1       -7.3970   34.1420   -3.5960 C.ar   76  PHE76      -0.0042
    111  CD2       -9.0120   35.9070   -3.5520 C.ar   76  PHE76      -0.0042
    112  CE1       -8.3230   33.2960   -4.1970 C.ar   76  PHE76      -0.0003
    113  CE2       -9.9580   35.0390   -4.1420 C.ar   76  PHE76      -0.0003
    114  CZ        -9.6080   33.7410   -4.4660 C.ar   76  PHE76      -0.0000
    115  N        -16.3860   32.3810    6.0060 N.3   172  LYS172     -0.1245
    116  CA       -16.1120   32.1780    4.5900 C.3   172  LYS172      0.1561
    117  C        -15.0390   31.1360    4.3760 C.2   172  LYS172      0.2260
    118  O        -15.1420   30.3560    3.4330 O.2   172  LYS172     -0.2867
    119  CB       -15.7650   33.4830    3.8780 C.3   172  LYS172      0.0271
    120  CG       -15.5790   33.3670    2.3520 C.3   172  LYS172      0.0035
    121  CD       -16.7160   32.6580    1.6480 C.3   172  LYS172      0.0206
    122  CE       -16.6020   32.7380    0.1190 C.3   172  LYS172      0.1093
    123  NZ       -16.8300   34.1370   -0.4640 N.3   172  LYS172     -0.1314
    124  N        -15.6080   28.0080    2.0250 N.3   176  ASN176     -0.1240
    125  CA       -14.6760   27.6250    0.9790 C.3   176  ASN176      0.1653
    126  C        -14.2980   26.1440    1.0290 C.2   176  ASN176      0.2266
    127  O        -14.1790   25.4880    0.0020 O.2   176  ASN176     -0.2867
    128  CB       -13.4130   28.5010    1.0320 C.3   176  ASN176      0.1155
    129  CG       -13.6300   29.9120    0.4970 C.2   176  ASN176      0.2627
    130  OD1      -14.3950   30.1460   -0.4410 O.2   176  ASN176     -0.2716
    131  ND2      -12.9300   30.8530    1.0920 N.am  176  ASN176     -0.0877
    132  N        -17.4430   24.1630   -0.2940 N.3   179  ARG179     -0.1245
    133  CA       -17.5060   24.1400   -1.7600 C.3   179  ARG179      0.1563
    134  C        -16.5300   23.0970   -2.2930 C.2   179  ARG179      0.2260
    135  O        -16.8550   22.4010   -3.2230 O.2   179  ARG179     -0.2867
    136  CB       -17.2790   25.5540   -2.3920 C.3   179  ARG179      0.0307
    137  CG       -18.0890   26.6240   -1.6550 C.3   179  ARG179      0.0489
    138  CD       -18.5090   27.8790   -2.3910 C.3   179  ARG179      0.2205
    139  NE       -17.4450   28.8040   -2.5270 N.pl3 179  ARG179     -0.0865
    140  CZ       -17.5530   30.1350   -2.7070 C.cat 179  ARG179      0.5346
    141  NH1      -18.7060   30.7980   -2.6770 N.pl3 179  ARG179      0.1354
    142  NH2      -16.4480   30.8190   -2.8620 N.pl3 179  ARG179      0.1354
    143  N        -17.1800   21.9180   -6.2610 N.3   184  TYR184     -0.1241
    144  CA       -16.7720   23.1950   -6.8860 C.3   184  TYR184      0.1605
    145  C        -15.8230   22.9980   -8.0770 C.2   184  TYR184      0.2264
    146  O        -15.9970   23.6410   -9.1310 O.2   184  TYR184     -0.2867
    147  CB       -16.1500   24.1250   -5.8530 C.3   184  TYR184      0.0534
    148  CG       -16.4970   25.5820   -6.0180 C.ar  184  TYR184     -0.0201
    149  CD1      -17.8250   26.0040   -6.2010 C.ar  184  TYR184     -0.0009
    150  CD2      -15.5170   26.5470   -5.9220 C.ar  184  TYR184     -0.0009
    151  CE1      -18.1400   27.3620   -6.3370 C.ar  184  TYR184      0.0417
    152  CE2      -15.8180   27.8880   -6.0440 C.ar  184  TYR184      0.0417
    153  CZ       -17.1120   28.3110   -6.2620 C.ar  184  TYR184      0.1957
    154  OH       -17.3490   29.6720   -6.4130 O.3   184  TYR184     -0.2866
    155  N        -24.1430   27.0090   -6.4110 N.3   191  LYS191     -0.1245
    156  CA       -23.8170   28.2000   -5.6420 C.3   191  LYS191      0.1561
    157  C        -25.0750   29.0170   -5.2870 C.2   191  LYS191      0.2260
    158  O        -25.1680   29.5680   -4.1790 O.2   191  LYS191     -0.2867
    159  CB       -22.7760   29.0580   -6.4010 C.3   191  LYS191      0.0271
    160  CG       -22.4000   30.3600   -5.6910 C.3   191  LYS191      0.0035
    161  CD       -20.9200   30.6880   -5.8710 C.3   191  LYS191      0.0206
    162  CE       -20.5290   31.9720   -5.1660 C.3   191  LYS191      0.1093
    163  NZ       -20.8460   33.1470   -5.9880 N.3   191  LYS191     -0.1314
    164  N        -27.6070   33.0400   -2.9730 N.3   197  GLU197     -0.1245
    165  CA       -26.1900   32.7390   -3.0530 C.3   197  GLU197      0.1567
    166  C        -25.6970   32.1060   -1.7460 C.2   197  GLU197      0.2260
    167  O        -26.0890   32.5450   -0.6550 O.2   197  GLU197     -0.2867
    168  CB       -25.4130   34.0310   -3.3630 C.3   197  GLU197      0.0388
    169  CG       -23.9500   33.8230   -3.6310 C.3   197  GLU197      0.1160
    170  CD       -23.2850   35.0260   -4.3150 C.2   197  GLU197      0.3649
    171  OE1      -23.7430   35.4250   -5.4330 O.co2 197  GLU197     -0.2457
    172  OE2      -22.3010   35.5520   -3.7430 O.co2 197  GLU197     -0.2457
    173  N        -22.9540   32.4570   -0.1380 N.3   199  ASN199     -0.1240
    174  CA       -22.3660   33.5070    0.7160 C.3   199  ASN199      0.1653
    175  C        -23.3860   34.1870    1.6380 C.2   199  ASN199      0.2266
    176  O        -23.0430   34.6440    2.7150 O.2   199  ASN199     -0.2867
    177  CB       -21.7490   34.6150   -0.1610 C.3   199  ASN199      0.1155
    178  CG       -20.4810   34.1740   -0.8630 C.2   199  ASN199      0.2627
    179  OD1      -19.5500   33.6770   -0.2170 O.2   199  ASN199     -0.2716
    180  ND2      -20.4330   34.3570   -2.1770 N.am  199  ASN199     -0.0877
@<TRIPOS>BOND
     1    44    42    1
     2   146   145    2
     3    42    43    1
     4    42    41    2
     5    41    40    1
     6   145   144    1
     7    68    69    1
     8    36    35    1
     9    36    37    2
    10    35    34    1
    11    35    38    1
    12    73    74    1
    13    73    72    1
    14    45    46    1
    15    69    72    1
    16    69    70    1
    17    75    74   ar
    18    59    60    1
    19   144   143    1
    20   144   147    1
    21    74    76   ar
    22    40    39    1
    23   154   153    1
    24   155   156    1
    25   159   160    1
    26   159   156    1
    27    47    46    1
    28    47    48    2
    29    38    39    1
    30   151   153   ar
    31   151   149   ar
    32   153   152   ar
    33   149   148   ar
    34    70    71    2
    35    46    49    1
    36   152   150   ar
    37   148   150   ar
    38   148   147    1
    39   163   162    1
    40    60    61    1
    41    60    63    1
    42   161   160    1
    43   161   162    1
    44    61    62    2
    45   156   157    1
    46    67    65   ar
    47   171   170   ar
    48   157   158    2
    49    32    30    1
    50    49    50    1
    51    29    28    2
    52    65    64    1
    53    65    66   ar
    54    51    50   ar
    55    51    53   ar
    56    63    64    1
    57    50    52   ar
    58   114   112   ar
    59   114   113   ar
    60    53    54   ar
    61   170   172   ar
    62   170   169    1
    63   112   110   ar
    64    52    54   ar
    65    52    55   ar
    66   113   111   ar
    67    54    56   ar
    68    28    27    1
    69    55    57   ar
    70    85    83   ar
    71   169   168    1
    72   110   109   ar
    73    56    58   ar
    74   111   109   ar
    75    30    27    1
    76    30    31    1
    77    57    58   ar
    78   168   165    1
    79   109   108    1
    80   135   134    2
    81    83    84   ar
    82    83    82    1
    83    27    26    1
    84   165   164    1
    85   165   166    1
    86    31    33    1
    87   142   140    1
    88   140   141    1
    89   140   139    2
    90   108   105    1
    91   139   138    1
    92    82    81    1
    93   136   133    1
    94   136   137    1
    95   138   137    1
    96   134   133    1
    97   180   178   am
    98    93    91   ar
    99   133   132    1
   100   166   167    2
   101    81    78    1
   102   107   106    2
   103    21    20    2
   104   105   106    1
   105   105   104    1
   106    90    91    1
   107    90    87    1
   108    91    92   ar
   109   178   179    2
   110   178   177    1
   111    89    88    2
   112    78    79    1
   113    78    77    1
   114    80    79    2
   115    88    87    1
   116   123   122    1
   117   130   129    2
   118    20    19    1
   119   104    96   am
   120   177   174    1
   121    87    86    1
   122   173   174    1
   123    23    25   am
   124    23    22    1
   125    23    24    2
   126    19    22    1
   127    19    18    1
   128   127   126    2
   129   122   121    1
   130   129   128    1
   131   129   131   am
   132    13    12    2
   133   174   175    1
   134    96    97    2
   135    96    95    1
   136   125   126    1
   137   125   128    1
   138   125   124    1
   139    98    95    1
   140    98    99    1
   141    18    12   am
   142    12    11    1
   143    16    15    1
   144   175   176    2
   145   121   120    1
   146     8     7    2
   147    95    94    1
   148    15    17    1
   149    15    14    1
   150    99   101   ar
   151    99   100   ar
   152   120   119    1
   153   101   103   ar
   154     7     6    1
   155     7     9   am
   156   100   102   ar
   157    11    14    1
   158    11    10    1
   159     4     3    2
   160     6     5    1
   161   103   102   ar
   162   118   117    2
   163   119   116    1
   164     3     2    1
   165   117   116    1
   166   116   115    1
   167     5     2    1
   168     2     1    1
