@<TRIPOS>MOLECULE
tmp/2cjfB01.pdb
 166 160 0 0 0
SMALL
GASTEIGER

@<TRIPOS>ATOM
      1  N        184.7380  121.2120   16.2070 N.3    14  PRO14      -0.2102
      2  CA       185.0970  120.8880   17.5470 C.3    14  PRO14       0.1504
      3  C        186.5100  121.2970   17.9030 C.2    14  PRO14       0.2576
      4  O        187.3890  121.4030   17.0380 O.2    14  PRO14      -0.2718
      5  CB       184.8910  119.3570   17.6420 C.3    14  PRO14       0.0282
      6  CG       184.9860  118.8900   16.3290 C.3    14  PRO14       0.0208
      7  CD       184.4130  120.0030   15.4270 C.3    14  PRO14       0.0893
      8  N        186.6240  121.5370   19.2020 N.am   15  ASN15      -0.1961
      9  CA       187.7630  122.0590   19.9340 C.3    15  ASN15       0.1819
     10  C        188.3080  123.3970   19.5140 C.2    15  ASN15       0.2621
     11  O        189.2400  123.8380   20.1150 O.2    15  ASN15      -0.2715
     12  CB       188.8760  120.9950   20.0400 C.3    15  ASN15       0.1195
     13  CG       188.3470  119.6590   20.5050 C.2    15  ASN15       0.2630
     14  OD1      188.0950  119.5250   21.6590 O.2    15  ASN15      -0.2716
     15  ND2      188.2250  118.6560   19.6020 N.am   15  ASN15      -0.0877
     16  N        187.7440  124.1000   18.5400 N.am   16  LEU16      -0.1977
     17  CA       188.4720  125.3290   18.2010 C.3    16  LEU16       0.1596
     18  C        188.2170  126.3560   19.2880 C.2    16  LEU16       0.2287
     19  O        188.8350  127.4210   19.3570 O.2    16  LEU16      -0.2864
     20  CB       188.1460  125.8500   16.8170 C.3    16  LEU16       0.0297
     21  CG       188.7870  124.9880   15.7280 C.3    16  LEU16       0.0022
     22  CD1      187.9500  125.0540   14.4440 C.3    16  LEU16       0.0001
     23  CD2      190.2560  125.4270   15.4760 C.3    16  LEU16       0.0001
     24  N        189.1150  126.3350   22.2300 N.3    18  LEU18      -0.1231
     25  CA       190.4020  126.4320   22.8900 C.3    18  LEU18       0.1693
     26  C        191.5850  126.8000   22.0200 C.2    18  LEU18       0.2592
     27  O        192.7340  126.8270   22.5190 O.2    18  LEU18      -0.2718
     28  CB       190.7510  125.0880   23.4990 C.3    18  LEU18       0.0284
     29  CG       189.8100  124.2990   24.3870 C.3    18  LEU18       0.0019
     30  CD1      190.4750  123.0400   24.4930 C.3    18  LEU18       0.0001
     31  CD2      189.6830  124.9120   25.7240 C.3    18  LEU18       0.0001
     32  N        191.3540  127.0090   20.7300 N.am   19  LEU19      -0.1966
     33  CA       192.4720  127.3380   19.8580 C.3    19  LEU19       0.1728
     34  C        193.3930  128.3230   20.5710 C.2    19  LEU19       0.2617
     35  O        192.9890  129.4470   20.9120 O.2    19  LEU19      -0.2715
     36  CB       191.9580  127.9750   18.5930 C.3    19  LEU19       0.0311
     37  CG       192.9630  128.5070   17.5720 C.3    19  LEU19       0.0022
     38  CD1      193.6390  127.3290   16.9090 C.3    19  LEU19       0.0001
     39  CD2      192.1500  129.2890   16.5740 C.3    19  LEU19       0.0001
     40  N        194.6310  127.8970   20.8360 N.am   20  GLY20      -0.1940
     41  CA       195.6340  128.8010   21.3770 C.3    20  GLY20       0.2014
     42  C        195.8470  128.7340   22.8540 C.2    20  GLY20       0.2639
     43  O        196.3380  129.7020   23.4520 O.2    20  GLY20      -0.2714
     44  N        195.4830  127.6180   23.4680 N.am   21  GLN21      -0.1963
     45  CA       195.9190  127.3580   24.8440 C.3    21  GLN21       0.1733
     46  C        197.1280  126.3890   24.8670 C.2    21  GLN21       0.2616
     47  O        197.7870  126.1950   25.9120 O.2    21  GLN21      -0.2715
     48  CB       194.7420  126.8440   25.6960 C.3    21  GLN21       0.0408
     49  CG       193.6890  127.9170   26.0040 C.3    21  GLN21       0.0908
     50  CD       192.3420  127.3660   26.4260 C.2    21  GLN21       0.2608
     51  OE1      192.2590  126.3630   27.1760 O.2    21  GLN21      -0.2717
     52  NE2      191.2760  128.0330   25.9880 N.am   21  GLN21      -0.0878
     53  N        197.4290  125.8170   23.6960 N.am   22  ARG22      -0.1963
     54  CA       198.3760  124.7230   23.5220 C.3    22  ARG22       0.1729
     55  C        198.7010  124.4240   22.0280 C.2    22  ARG22       0.2616
     56  O        197.9450  124.7930   21.0980 O.2    22  ARG22      -0.2715
     57  CB       197.8260  123.4670   24.1600 C.3    22  ARG22       0.0348
     58  CG       196.7380  122.8400   23.3360 C.3    22  ARG22       0.0492
     59  CD       196.4540  121.4040   23.6590 C.3    22  ARG22       0.2205
     60  NE       197.6720  120.6190   23.7130 N.pl3  22  ARG22      -0.0865
     61  CZ       197.9610  119.6500   22.8740 C.cat  22  ARG22       0.5346
     62  NH1      197.0890  119.3250   21.9240 N.pl3  22  ARG22       0.1354
     63  NH2      199.1070  118.9910   22.9880 N.pl3  22  ARG22       0.1354
     64  N        199.8260  123.7320   21.8280 N.am   23  GLN23      -0.1977
     65  CA       200.4030  123.4640   20.5160 C.3    23  GLN23       0.1601
     66  C        200.4390  124.6610   19.5510 C.2    23  GLN23       0.2287
     67  O        199.9130  124.5620   18.4180 O.2    23  GLN23      -0.2864
     68  CB       199.7290  122.2670   19.8620 C.3    23  GLN23       0.0394
     69  CG       200.5560  121.0060   19.9650 C.3    23  GLN23       0.0908
     70  CD       200.0150  119.8860   19.1000 C.2    23  GLN23       0.2608
     71  OE1      198.7900  119.7890   18.8930 O.2    23  GLN23      -0.2717
     72  NE2      200.9170  119.0240   18.6040 N.am   23  GLN23      -0.0878
     73  N        199.2040  125.5680   15.9440 N.3    27  TYR27      -0.1241
     74  CA       197.9860  126.3770   15.7700 C.3    27  TYR27       0.1605
     75  C        198.1670  127.8880   15.9140 C.2    27  TYR27       0.2264
     76  O        197.2500  128.6620   15.6300 O.2    27  TYR27      -0.2867
     77  CB       196.8250  125.8040   16.5980 C.3    27  TYR27       0.0534
     78  CG       196.4730  124.3870   16.1890 C.ar   27  TYR27      -0.0201
     79  CD1      196.6570  123.3080   17.0680 C.ar   27  TYR27      -0.0009
     80  CD2      196.0080  124.1130   14.8920 C.ar   27  TYR27      -0.0009
     81  CE1      196.3560  122.0100   16.6760 C.ar   27  TYR27       0.0417
     82  CE2      195.7160  122.8210   14.4880 C.ar   27  TYR27       0.0417
     83  CZ       195.8840  121.7840   15.3770 C.ar   27  TYR27       0.1957
     84  OH       195.5930  120.5150   14.9570 O.3    27  TYR27      -0.2866
     85  N        185.9250  125.9120    9.1440 N.3    78  ASN78      -0.1240
     86  CA       186.9380  125.0260    9.5430 C.3    78  ASN78       0.1653
     87  C        186.2850  123.9660   10.3680 C.2    78  ASN78       0.2266
     88  O        186.0240  124.1990   11.5590 O.2    78  ASN78      -0.2867
     89  CB       188.0420  125.7530   10.3610 C.3    78  ASN78       0.1155
     90  CG       189.0780  124.8020   10.8230 C.2    78  ASN78       0.2627
     91  OD1      188.8970  123.5800   10.6800 O.2    78  ASN78      -0.2716
     92  ND2      190.1780  125.3140   11.3590 N.am   78  ASN78      -0.0877
     93  N        187.3730  121.3540   11.6160 N.3    80  ALA80      -0.1231
     94  CA       188.2050  120.7210   12.6290 C.3    80  ALA80       0.1694
     95  C        187.8590  119.1950   12.5240 C.2    80  ALA80       0.2591
     96  O        187.7370  118.6770   11.4120 O.2    80  ALA80      -0.2718
     97  CB       187.8530  121.2780   13.9220 C.3    80  ALA80       0.0304
     98  N        187.6760  118.4710   13.6250 N.am   81  ALA81      -0.1980
     99  CA       187.6640  117.0110   13.5120 C.3    81  ALA81       0.1597
    100  C        186.6240  116.4150   12.5530 C.2    81  ALA81       0.2287
    101  O        186.8270  115.3130   12.0390 O.2    81  ALA81      -0.2864
    102  CB       187.5380  116.3680   14.8660 C.3    81  ALA81       0.0319
    103  N        187.1650  115.0090    8.7180 N.3    84  HIS84      -0.1241
    104  CA       187.6710  113.6920    8.3550 C.3    84  HIS84       0.1621
    105  C        186.6020  112.6710    8.6420 C.2    84  HIS84       0.2264
    106  O        186.7520  111.5390    8.2640 O.2    84  HIS84      -0.2867
    107  CB       188.9250  113.3190    9.1840 C.3    84  HIS84       0.0745
    108  CG       189.9280  114.4090    9.2800 C.ar   84  HIS84       0.0817
    109  ND1      190.5470  114.9310    8.1610 N.ar   84  HIS84      -0.2268
    110  CD2      190.3740  115.1240   10.3390 C.ar   84  HIS84       0.1154
    111  CE1      191.3620  115.9040    8.5320 C.ar   84  HIS84       0.1986
    112  NE2      191.2920  116.0280    9.8530 N.ar   84  HIS84      -0.2212
    113  N        191.7350  124.8730    6.9640 N.3   105  HIS105     -0.1226
    114  CA       192.5000  124.2200    8.0130 C.3   105  HIS105      0.1752
    115  C        193.6690  125.0840    8.3180 C.2   105  HIS105      0.2596
    116  O        194.4180  125.4680    7.4090 O.2   105  HIS105     -0.2718
    117  CB       192.9800  122.8330    7.5740 C.3   105  HIS105      0.0759
    118  CG       191.8990  122.0000    6.9700 C.ar  105  HIS105      0.0818
    119  ND1      191.1420  121.1080    7.7000 N.ar  105  HIS105     -0.2268
    120  CD2      191.4120  121.9550    5.7030 C.ar  105  HIS105      0.1154
    121  CE1      190.2650  120.5130    6.9010 C.ar  105  HIS105      0.1986
    122  NE2      190.3810  121.0420    5.6920 N.ar  105  HIS105     -0.2212
    123  N        193.7850  125.4640    9.5790 N.am  106  ILE106     -0.1966
    124  CA       194.9660  126.1830   10.0730 C.3   106  ILE106      0.1727
    125  C        196.2970  125.4050    9.8200 C.2   106  ILE106      0.2616
    126  O        197.2760  125.9450    9.2710 O.2   106  ILE106     -0.2715
    127  CB       194.7790  126.3800   11.5760 C.3   106  ILE106      0.0290
    128  CG1      193.5800  127.2710   11.8030 C.3   106  ILE106      0.0022
    129  CG2      196.1170  126.8750   12.3060 C.3   106  ILE106      0.0023
    130  CD1      193.1640  127.1900   13.2380 C.3   106  ILE106      0.0001
    131  N        196.3160  124.1510   10.2680 N.am  107  SER107     -0.1950
    132  CA       197.4080  123.2900    9.9460 C.3   107  SER107      0.1924
    133  C        197.3240  122.7920    8.5350 C.2   107  SER107      0.2314
    134  O        196.2850  122.8920    7.8280 O.2   107  SER107     -0.2863
    135  CB       197.5130  122.1180   10.9220 C.3   107  SER107      0.2116
    136  OG       196.5190  121.1390   10.7080 O.3   107  SER107     -0.2180
    137  N        197.0320  119.6410    6.7980 N.3   109  ILE109     -0.1245
    138  CA       196.6200  118.2790    7.1300 C.3   109  ILE109      0.1561
    139  C        197.4080  117.2100    6.3890 C.2   109  ILE109      0.2260
    140  O        197.5840  116.1670    6.8970 O.2   109  ILE109     -0.2867
    141  CB       195.0990  118.1180    7.1080 C.3   109  ILE109      0.0252
    142  CG1      194.5240  118.6910    5.8250 C.3   109  ILE109      0.0019
    143  CG2      194.5380  118.9140    8.2950 C.3   109  ILE109      0.0019
    144  CD1      193.2740  118.0470    5.3440 C.3   109  ILE109      0.0001
    145  N        200.3170  115.5830    8.3650 N.3   112  ARG112     -0.1245
    146  CA       199.9490  115.0880    9.6830 C.3   112  ARG112      0.1563
    147  C        199.5420  113.5920    9.6450 C.2   112  ARG112      0.2260
    148  O        199.6950  112.9390    8.6380 O.2   112  ARG112     -0.2867
    149  CB       198.8580  116.0100   10.1970 C.3   112  ARG112      0.0307
    150  CG       199.2130  117.5040    9.8900 C.3   112  ARG112      0.0489
    151  CD       198.9080  118.5080   10.9580 C.3   112  ARG112      0.2205
    152  NE       198.9160  117.8590   12.2700 N.pl3 112  ARG112     -0.0865
    153  CZ       197.9210  117.8740   13.1450 C.cat 112  ARG112      0.5346
    154  NH1      196.7820  118.5350   12.9000 N.pl3 112  ARG112      0.1354
    155  NH2      198.0810  117.2510   14.3040 N.pl3 112  ARG112      0.1354
    156  N        194.1170  112.2340    8.8220 N.3   116  ARG116     -0.1245
    157  CA       193.8310  113.6280    8.6090 C.3   116  ARG116      0.1563
    158  C        194.0130  114.0670    7.1730 C.2   116  ARG116      0.2260
    159  O        193.9050  115.2590    6.9030 O.2   116  ARG116     -0.2867
    160  CB       194.6920  114.5080    9.4910 C.3   116  ARG116      0.0307
    161  CG       194.4650  114.2520   10.9180 C.3   116  ARG116      0.0489
    162  CD       194.6580  115.4450   11.7480 C.3   116  ARG116      0.2205
    163  NE       194.9010  115.0170   13.1020 N.pl3 116  ARG116     -0.0865
    164  CZ       194.0830  115.1910   14.0940 C.cat 116  ARG116      0.5346
    165  NH1      192.9410  115.8310   13.9380 N.pl3 116  ARG116      0.1354
    166  NH2      194.4570  114.7710   15.2840 N.pl3 116  ARG116      0.1354
@<TRIPOS>BOND
     1   144   142    1
     2   122   120   ar
     3   122   121   ar
     4   120   118   ar
     5   142   141    1
     6   139   140    2
     7   139   138    1
     8   137   138    1
     9   121   119   ar
    10   159   158    2
    11   113   114    1
    12   118   117    1
    13   118   119   ar
    14   141   138    1
    15   141   143    1
    16   158   157    1
    17   116   115    2
    18   117   114    1
    19   134   133    2
    20   114   115    1
    21   109   111   ar
    22   109   108   ar
    23   106   105    2
    24   115   123   am
    25   104   105    1
    26   104   103    1
    27   104   107    1
    28   145   146    1
    29   111   112   ar
    30   133   132    1
    31   157   156    1
    32   157   160    1
    33   148   147    2
    34    85    86    1
    35   107   108    1
    36   126   125    2
    37   108   110   ar
    38   160   161    1
    39    86    89    1
    40    86    87    1
    41   123   124    1
    42   147   146    1
    43   146   149    1
    44   125   124    1
    45   125   131   am
    46   112   110   ar
    47   150   149    1
    48   150   151    1
    49   132   131    1
    50   132   135    1
    51   124   127    1
    52    89    90    1
    53    87    88    2
    54    91    90    2
    55   136   135    1
    56    90    92   am
    57   161   162    1
    58   151   152    1
    59    96    95    2
    60   127   128    1
    61   127   129    1
    62    93    94    1
    63   162   163    1
    64   128   130    1
    65   101   100    2
    66   152   153    2
    67    95    94    1
    68    95    98   am
    69   100    99    1
    70    94    97    1
    71   154   153    1
    72   163   164    2
    73   153   155    1
    74    99    98    1
    75    99   102    1
    76   165   164    1
    77   164   166    1
    78    22    21    1
    79    82    80   ar
    80    82    83   ar
    81    80    78   ar
    82    84    83    1
    83    83    81   ar
    84     7     1    1
    85     7     6    1
    86    23    21    1
    87    76    75    2
    88    21    20    1
    89    74    75    1
    90    74    73    1
    91    74    77    1
    92    78    77    1
    93    78    79   ar
    94     1     2    1
    95     6     5    1
    96    39    37    1
    97    81    79   ar
    98    20    17    1
    99    38    37    1
   100     4     3    2
   101     2     5    1
   102     2     3    1
   103    37    36    1
   104     3     8   am
   105    17    16    1
   106    17    18    1
   107    67    66    2
   108    16    10   am
   109    36    33    1
   110    72    70   am
   111    71    70    2
   112    70    69    1
   113     8     9    1
   114    18    19    2
   115    10     9    1
   116    10    11    2
   117    66    65    1
   118    15    13   am
   119    33    34    1
   120    33    32    1
   121    68    69    1
   122    68    65    1
   123     9    12    1
   124    12    13    1
   125    13    14    2
   126    65    64    1
   127    34    40   am
   128    34    35    2
   129    32    26   am
   130    40    41    1
   131    56    55    2
   132    41    42    1
   133    64    55   am
   134    62    61    1
   135    26    27    2
   136    26    25    1
   137    55    54    1
   138    24    25    1
   139    42    43    2
   140    42    44   am
   141    61    63    1
   142    61    60    2
   143    25    28    1
   144    58    59    1
   145    58    57    1
   146    44    45    1
   147    28    29    1
   148    54    53    1
   149    54    57    1
   150    59    60    1
   151    53    46   am
   152    29    30    1
   153    29    31    1
   154    45    46    1
   155    45    48    1
   156    46    47    2
   157    48    49    1
   158    52    50   am
   159    49    50    1
   160    50    51    2
