@<TRIPOS>MOLECULE
tmp/2cjhA00.pdb
 104 98 0 0 0
SMALL
GASTEIGER

@<TRIPOS>ATOM
      1  N        -22.0230  -40.2320   45.8080 N.3   113  GLY113     -0.1210
      2  CA       -22.3780  -38.8650   45.4110 C.3   113  GLY113      0.1956
      3  C        -21.5650  -38.3390   44.2370 C.2   113  GLY113      0.2612
      4  O        -20.3280  -38.4380   44.2370 O.2   113  GLY113     -0.2717
      5  N        -22.2570  -37.7780   43.2400 N.am  114  GLY114     -0.1942
      6  CA       -21.5770  -37.2540   42.0690 C.3   114  GLY114      0.2014
      7  C        -20.7150  -36.0250   42.3320 C.2   114  GLY114      0.2638
      8  O        -19.6290  -35.8830   41.7720 O.2   114  GLY114     -0.2714
      9  N        -21.1920  -35.0890   43.1420 N.am  115  ALA115     -0.1977
     10  CA       -20.3420  -33.9150   43.4300 C.3   115  ALA115      0.1597
     11  C        -19.0220  -34.3560   44.1170 C.2   115  ALA115      0.2287
     12  O        -17.9520  -33.8180   43.8460 O.2   115  ALA115     -0.2864
     13  CB       -21.0750  -32.8860   44.2580 C.3   115  ALA115      0.0319
     14  N        -16.4780  -35.6600   41.6090 N.3   118  VAL118     -0.1245
     15  CA       -15.7830  -34.5550   40.9660 C.3   118  VAL118      0.1561
     16  C        -14.7760  -33.9560   41.9220 C.2   118  VAL118      0.2260
     17  O        -13.6450  -33.6610   41.5390 O.2   118  VAL118     -0.2867
     18  CB       -16.7600  -33.4640   40.4250 C.3   118  VAL118      0.0252
     19  CG1      -15.9620  -32.2930   39.8360 C.3   118  VAL118      0.0019
     20  CG2      -17.7250  -34.1080   39.3810 C.3   118  VAL118      0.0019
     21  N        -22.1170  -27.4290   34.9850 N.3   153  PHE153     -0.1227
     22  CA       -22.7230  -27.9120   36.2300 C.3   153  PHE153      0.1736
     23  C        -21.8970  -29.0940   36.7150 C.2   153  PHE153      0.2595
     24  O        -21.8450  -30.1230   36.0300 O.2   153  PHE153     -0.2718
     25  CB       -24.1870  -28.3450   36.0560 C.3   153  PHE153      0.0547
     26  CG       -24.8050  -28.8280   37.3430 C.ar  153  PHE153     -0.0202
     27  CD1      -24.6550  -30.1570   37.7440 C.ar  153  PHE153     -0.0042
     28  CD2      -25.4990  -27.9560   38.1610 C.ar  153  PHE153     -0.0042
     29  CE1      -25.1990  -30.5950   38.9550 C.ar  153  PHE153     -0.0003
     30  CE2      -26.0430  -28.3900   39.3720 C.ar  153  PHE153     -0.0003
     31  CZ       -25.8850  -29.7090   39.7730 C.ar  153  PHE153     -0.0000
     32  N        -21.2630  -28.9560   37.8830 N.am  154  HIS154     -0.1961
     33  CA       -20.4410  -30.0380   38.4490 C.3   154  HIS154      0.1787
     34  C        -20.8720  -30.4620   39.8700 C.2   154  HIS154      0.2621
     35  O        -20.2170  -31.3130   40.4920 O.2   154  HIS154     -0.2715
     36  CB       -18.9510  -29.6160   38.4570 C.3   154  HIS154      0.0785
     37  CG       -18.3870  -29.3770   37.0880 C.ar  154  HIS154      0.0821
     38  ND1      -18.2910  -30.3770   36.1480 N.ar  154  HIS154     -0.2267
     39  CD2      -17.8950  -28.2590   36.5030 C.ar  154  HIS154      0.1154
     40  CE1      -17.7760  -29.8830   35.0330 C.ar  154  HIS154      0.1986
     41  NE2      -17.5390  -28.5980   35.2160 N.ar  154  HIS154     -0.2212
     42  N        -21.9610  -29.8770   40.3870 N.am  155  GLY155     -0.1940
     43  CA       -22.4650  -30.2790   41.7040 C.3   155  GLY155      0.2014
     44  C        -22.6090  -29.0910   42.6370 C.2   155  GLY155      0.2638
     45  O        -22.3500  -27.9530   42.2540 O.2   155  GLY155     -0.2714
     46  N        -23.0320  -29.3590   43.8730 N.am  156  ARG156     -0.1977
     47  CA       -23.3950  -28.3040   44.7940 C.3   156  ARG156      0.1597
     48  C        -22.6050  -28.3730   46.0990 C.2   156  ARG156      0.2287
     49  O        -23.0640  -27.9280   47.1550 O.2   156  ARG156     -0.2864
     50  CB       -24.8920  -28.4500   45.0960 C.3   156  ARG156      0.0334
     51  CG       -25.8070  -28.2070   43.8980 C.3   156  ARG156      0.0492
     52  CD       -27.2300  -28.5790   44.3860 C.3   156  ARG156      0.2205
     53  NE       -28.2900  -28.3830   43.4240 N.pl3 156  ARG156     -0.0865
     54  CZ       -29.1810  -27.3820   43.4930 C.cat 156  ARG156      0.5346
     55  NH1      -29.0960  -26.4460   44.4420 N.pl3 156  ARG156      0.1354
     56  NH2      -30.1570  -27.3210   42.6080 N.pl3 156  ARG156      0.1354
     57  N        -17.6220  -30.9080   31.3300 N.3   224  GLU224     -0.1245
     58  CA       -18.5650  -31.8760   30.7910 C.3   224  GLU224      0.1567
     59  C        -18.3600  -32.0020   29.2630 C.2   224  GLU224      0.2260
     60  O        -18.3330  -30.9900   28.5820 O.2   224  GLU224     -0.2867
     61  CB       -19.9950  -31.3890   31.0290 C.3   224  GLU224      0.0388
     62  CG       -20.3520  -31.2160   32.4990 C.3   224  GLU224      0.1160
     63  CD       -21.4830  -30.2450   32.6430 C.2   224  GLU224      0.3649
     64  OE1      -22.6430  -30.6830   32.5280 O.co2 224  GLU224     -0.2457
     65  OE2      -21.1930  -29.0480   32.8070 O.co2 224  GLU224     -0.2457
     66  N        -15.9370  -34.5250   33.3430 N.3   257  ASP257     -0.1239
     67  CA       -17.0460  -34.8520   34.2460 C.3   257  ASP257      0.1674
     68  C        -18.0890  -35.5910   33.4080 C.2   257  ASP257      0.2266
     69  O        -18.8750  -34.9640   32.6510 O.2   257  ASP257     -0.2867
     70  CB       -17.6020  -33.5710   34.8900 C.3   257  ASP257      0.1410
     71  CG       -18.8390  -33.8250   35.7740 C.2   257  ASP257      0.3668
     72  OD1      -19.4260  -34.9320   35.7330 O.co2 257  ASP257     -0.2456
     73  OD2      -19.2480  -32.8910   36.4880 O.co2 257  ASP257     -0.2456
     74  N        -20.4530  -37.5540   34.8000 N.3   259  VAL259     -0.1231
     75  CA       -21.5250  -37.9720   35.7220 C.3   259  VAL259      0.1692
     76  C        -22.8440  -38.0680   34.9410 C.2   259  VAL259      0.2591
     77  O        -23.6140  -39.0280   35.1390 O.2   259  VAL259     -0.2718
     78  CB       -21.6700  -37.0590   37.0190 C.3   259  VAL259      0.0266
     79  CG1      -22.9690  -37.4170   37.8240 C.3   259  VAL259      0.0020
     80  CG2      -20.4340  -37.1810   37.9370 C.3   259  VAL259      0.0020
     81  N        -23.1080  -37.1110   34.0450 N.am  260  GLN260     -0.1979
     82  CA       -24.3360  -37.1960   33.2240 C.3   260  GLN260      0.1601
     83  C        -24.2140  -37.9400   31.8890 C.2   260  GLN260      0.2287
     84  O        -25.1870  -38.5480   31.4200 O.2   260  GLN260     -0.2864
     85  CB       -24.9620  -35.8210   32.9770 C.3   260  GLN260      0.0394
     86  CG       -26.4340  -35.9790   32.5290 C.3   260  GLN260      0.0908
     87  CD       -27.2750  -34.7490   32.7100 C.2   260  GLN260      0.2608
     88  OE1      -28.1810  -34.5010   31.9200 O.2   260  GLN260     -0.2717
     89  NE2      -26.9850  -33.9580   33.7550 N.am  260  GLN260     -0.0878
     90  N        -24.3190  -41.1080   38.7970 N.3   286  LYS286     -0.1245
     91  CA       -25.6750  -41.3170   38.2820 C.3   286  LYS286      0.1561
     92  C        -25.9370  -42.7670   37.8350 C.2   286  LYS286      0.2260
     93  O        -26.1590  -43.6110   38.6800 O.2   286  LYS286     -0.2867
     94  CB       -26.0370  -40.2630   37.2310 C.3   286  LYS286      0.0271
     95  CG       -26.3690  -38.9110   37.8500 C.3   286  LYS286      0.0035
     96  CD       -26.9450  -37.9490   36.8040 C.3   286  LYS286      0.0206
     97  CE       -27.6680  -36.7930   37.4760 C.3   286  LYS286      0.1093
     98  NZ       -26.6740  -35.7190   37.5750 N.3   286  LYS286     -0.1314
     99  N        -20.5700  -43.8260   42.8260 N.3   291  CYS291     -0.1235
    100  CA       -19.8900  -42.7310   42.1270 C.3   291  CYS291      0.1677
    101  C        -18.3710  -42.8770   42.2910 C.2   291  CYS291      0.2270
    102  O        -17.9080  -43.6680   43.1360 O.2   291  CYS291     -0.2867
    103  CB       -20.3920  -41.3810   42.6500 C.3   291  CYS291      0.0956
    104  SG       -22.2090  -41.2760   42.3920 S.3   291  CYS291     -0.0801
@<TRIPOS>BOND
     1    60    59    2
     2    59    58    1
     3    58    61    1
     4    58    57    1
     5    61    62    1
     6    84    83    2
     7    83    82    1
     8    88    87    2
     9    62    63    1
    10    64    63   ar
    11    86    87    1
    12    86    85    1
    13    63    65   ar
    14    69    68    2
    15    87    89   am
    16    85    82    1
    17    82    81    1
    18    66    67    1
    19    68    67    1
    20    81    76   am
    21    67    70    1
    22    74    75    1
    23    70    71    1
    24    76    77    2
    25    76    75    1
    26    21    22    1
    27    40    41   ar
    28    40    38   ar
    29    41    39   ar
    30    75    78    1
    31    72    71   ar
    32    71    73   ar
    33    24    23    2
    34    25    22    1
    35    25    26    1
    36    38    37   ar
    37    22    23    1
    38    39    37   ar
    39    23    32   am
    40    96    97    1
    41    96    95    1
    42    78    79    1
    43    78    80    1
    44    37    36    1
    45    94    95    1
    46    94    91    1
    47    26    27   ar
    48    26    28   ar
    49    97    98    1
    50    27    29   ar
    51    92    91    1
    52    92    93    2
    53    32    33    1
    54    28    30   ar
    55    91    90    1
    56    33    36    1
    57    33    34    1
    58    29    31   ar
    59    30    31   ar
    60    20    18    1
    61    19    18    1
    62    34    42   am
    63    34    35    2
    64    42    43    1
    65    18    15    1
    66    15    14    1
    67    15    16    1
    68    17    16    2
    69    43    44    1
    70     8     7    2
    71     6     7    1
    72     6     5    1
    73   100   101    1
    74   100   103    1
    75   100    99    1
    76    45    44    2
    77   101   102    2
    78     7     9   am
    79   104   103    1
    80    56    54    1
    81    44    46   am
    82     9    10    1
    83     5     3   am
    84    53    54    2
    85    53    52    1
    86    10    11    1
    87    10    13    1
    88    54    55    1
    89    12    11    2
    90    46    47    1
    91    51    52    1
    92    51    50    1
    93     3     4    2
    94     3     2    1
    95    47    50    1
    96    47    48    1
    97     2     1    1
    98    48    49    2
