@<TRIPOS>MOLECULE
tmp/2cjiA00.pdb
 175 174 0 0 0
SMALL
GASTEIGER

@<TRIPOS>ATOM
      1  N         14.4770   10.6390   13.8850 N.3    42  HIS42      -0.1241
      2  CA        13.0220   10.6500   13.8650 C.3    42  HIS42       0.1621
      3  C         12.4170   12.0400   14.1140 C.2    42  HIS42       0.2264
      4  O         11.2660   12.3050   13.7070 O.2    42  HIS42      -0.2867
      5  CB        12.4110    9.5510   14.7680 C.3    42  HIS42       0.0745
      6  CG        12.1220    9.9650   16.1890 C.ar   42  HIS42       0.0817
      7  ND1       12.8680    9.5240   17.2650 N.ar   42  HIS42      -0.2268
      8  CD2       11.1200   10.7140   16.7140 C.ar   42  HIS42       0.1154
      9  CE1       12.3450    9.9940   18.3860 C.ar   42  HIS42       0.1986
     10  NE2       11.2970   10.7370   18.0780 N.ar   42  HIS42      -0.2212
     11  N         12.0910    4.1660    9.9330 N.3    82  LYS82      -0.1231
     12  CA        10.9250    4.4190   10.7820 C.3    82  LYS82       0.1693
     13  C         10.2910    3.1580   11.3590 C.2    82  LYS82       0.2592
     14  O          9.5780    3.2260   12.3540 O.2    82  LYS82      -0.2718
     15  CB         9.8560    5.2390   10.0400 C.3    82  LYS82       0.0285
     16  CG        10.2680    6.6820   10.0530 C.3    82  LYS82       0.0035
     17  CD         9.2700    7.3270    9.1990 C.3    82  LYS82       0.0206
     18  CE         9.1310    8.8370    9.5140 C.3    82  LYS82       0.1093
     19  NZ         8.3950    9.1570   10.7830 N.3    82  LYS82      -0.1314
     20  N         10.5510    1.9980   10.7670 N.am   83  GLU83      -0.1966
     21  CA         9.8610    0.8160   11.2780 C.3    83  GLU83       0.1733
     22  C         10.3940    0.3310   12.6320 C.2    83  GLU83       0.2617
     23  O          9.6220   -0.1450   13.4610 O.2    83  GLU83      -0.2715
     24  CB         9.7050   -0.3100   10.2140 C.3    83  GLU83       0.0429
     25  CG        11.0170   -0.8230    9.5960 C.3    83  GLU83       0.1163
     26  CD        10.8420   -2.0830    8.7700 C.2    83  GLU83       0.3649
     27  OE1       10.0420   -2.0720    7.7820 O.co2  83  GLU83      -0.2457
     28  OE2       11.5130   -3.1090    9.0780 O.co2  83  GLU83      -0.2457
     29  N         11.6960    0.4900   12.8540 N.am   84  THR84      -0.1937
     30  CA        12.3270    0.0350   14.0830 C.3    84  THR84       0.2028
     31  C         13.0100    1.1560   14.8970 C.2    84  THR84       0.2642
     32  O         13.3030    0.9710   16.0890 O.2    84  THR84      -0.2714
     33  CB        13.3570   -1.0850   13.7940 C.3    84  THR84       0.1808
     34  OG1       14.4020   -0.5970   12.9380 O.3    84  THR84      -0.2208
     35  CG2       12.6930   -2.2860   13.1160 C.3    84  THR84       0.0379
     36  N         13.2120    2.3140   14.2520 N.am   85  TYR85      -0.1973
     37  CA        13.9900    3.4550   14.7840 C.3    85  TYR85       0.1639
     38  C         15.4780    3.1050   14.9210 C.2    85  TYR85       0.2290
     39  O         16.1850    3.6740   15.7490 O.2    85  TYR85      -0.2864
     40  CB        13.3940    4.0030   16.0810 C.3    85  TYR85       0.0560
     41  CG        12.2450    4.9950   15.9370 C.ar   85  TYR85      -0.0198
     42  CD1       11.4850    5.0790   14.7730 C.ar   85  TYR85      -0.0009
     43  CD2       11.8680    5.7930   17.0150 C.ar   85  TYR85      -0.0009
     44  CE1       10.3930    5.9970   14.6650 C.ar   85  TYR85       0.0417
     45  CE2       10.8020    6.7000   16.9260 C.ar   85  TYR85       0.0417
     46  CZ        10.0640    6.7890   15.7500 C.ar   85  TYR85       0.1957
     47  OH         9.0020    7.6660   15.6760 O.3    85  TYR85      -0.2866
     48  N          2.6070   10.5870   30.9570 N.3   135  GLU135     -0.1245
     49  CA         2.3930    9.9150   29.6760 C.3   135  GLU135      0.1567
     50  C          1.4480   10.6950   28.7330 C.2   135  GLU135      0.2260
     51  O          1.6350   10.7050   27.5020 O.2   135  GLU135     -0.2867
     52  CB         1.9230    8.4780   29.8660 C.3   135  GLU135      0.0388
     53  CG         1.9330    7.7200   28.5640 C.3   135  GLU135      0.1160
     54  CD         1.6650    6.2410   28.7140 C.2   135  GLU135      0.3649
     55  OE1        2.0010    5.6630   29.7720 O.co2 135  GLU135     -0.2457
     56  OE2        1.1540    5.6550   27.7380 O.co2 135  GLU135     -0.2457
     57  N          9.1990   -4.5660   21.1550 N.3   162  PHE162     -0.1241
     58  CA         9.8130   -4.0910   19.8960 C.3   162  PHE162      0.1605
     59  C         11.3040   -4.4470   19.8560 C.2   162  PHE162      0.2264
     60  O         11.9460   -4.4960   20.9010 O.2   162  PHE162     -0.2867
     61  CB         9.6470   -2.5700   19.7600 C.3   162  PHE162      0.0534
     62  CG         8.2250   -2.1200   19.6160 C.ar  162  PHE162     -0.0203
     63  CD1        7.6380   -2.0030   18.3450 C.ar  162  PHE162     -0.0042
     64  CD2        7.4650   -1.8090   20.7440 C.ar  162  PHE162     -0.0042
     65  CE1        6.2900   -1.5770   18.2010 C.ar  162  PHE162     -0.0003
     66  CE2        6.1210   -1.3960   20.6330 C.ar  162  PHE162     -0.0003
     67  CZ         5.5320   -1.2640   19.3570 C.ar  162  PHE162     -0.0000
     68  N         11.0490    8.6040   34.1590 N.3   179  ASP179     -0.1225
     69  CA        11.3890    8.2510   32.7760 C.3   179  ASP179      0.1805
     70  C         11.4410    9.5330   31.9410 C.2   179  ASP179      0.2598
     71  O         11.0340   10.6020   32.3970 O.2   179  ASP179     -0.2718
     72  CB        10.3100    7.3070   32.2120 C.3   179  ASP179      0.1424
     73  CG        10.7740    6.5110   31.0100 C.2   179  ASP179      0.3668
     74  OD1       11.9790    6.5490   30.6900 O.co2 179  ASP179     -0.2456
     75  OD2        9.9390    5.8210   30.3880 O.co2 179  ASP179     -0.2456
     76  N         12.0080    9.4410   30.7440 N.am  180  ALA180     -0.1966
     77  CA        11.9130   10.5240   29.7900 C.3   180  ALA180      0.1728
     78  C         10.4880   10.3420   29.2430 C.2   180  ALA180      0.2616
     79  O          9.8230    9.3610   29.5930 O.2   180  ALA180     -0.2715
     80  CB        12.9760   10.3870   28.6660 C.3   180  ALA180      0.0334
     81  N         10.0120   11.2610   28.4060 N.am  181  CYS181     -0.1954
     82  CA         8.6690   11.1260   27.8340 C.3   181  CYS181      0.1843
     83  C          8.5620   11.8640   26.4950 C.2   181  CYS181      0.2625
     84  O          9.5730   12.2770   25.9070 O.2   181  CYS181     -0.2714
     85  CB         7.6100   11.6030   28.8530 C.3   181  CYS181      0.0997
     86  SG         5.8800   11.0910   28.5400 S.3   181  CYS181     -0.0797
     87  N          7.3390   12.0370   25.9960 N.am  182  GLN182     -0.1977
     88  CA         7.1530   12.7250   24.7060 C.3   182  GLN182      0.1601
     89  C          7.7170   14.1400   24.6880 C.2   182  GLN182      0.2287
     90  O          7.5030   14.9110   25.6310 O.2   182  GLN182     -0.2864
     91  CB         5.6700   12.7680   24.3060 C.3   182  GLN182      0.0394
     92  CG         5.4800   13.0800   22.8250 C.3   182  GLN182      0.0908
     93  CD         4.0190   13.0920   22.4080 C.2   182  GLN182      0.2608
     94  OE1        3.7020   12.8780   21.2220 O.2   182  GLN182     -0.2717
     95  NE2        3.1140   13.3500   23.3720 N.am  182  GLN182     -0.0878
     96  N         12.5860   13.6090   23.0860 N.3   185  SER185     -0.1217
     97  CA        13.3120   12.8980   22.0150 C.3   185  SER185      0.1889
     98  C         14.3880   13.7730   21.3910 C.2   185  SER185      0.2288
     99  O         14.1630   14.9530   21.2050 O.2   185  SER185     -0.2866
    100  CB        12.3600   12.4150   20.8920 C.3   185  SER185      0.2089
    101  OG        11.3330   11.5770   21.4040 O.3   185  SER185     -0.2183
    102  N         17.9060   10.4860   23.4850 N.3   203  VAL203     -0.1231
    103  CA        16.5290   10.0680   23.8000 C.3   203  VAL203      0.1692
    104  C         15.8160    9.5850   22.4970 C.2   203  VAL203      0.2593
    105  O         15.6520   10.3670   21.5470 O.2   203  VAL203     -0.2718
    106  CB        15.7740   11.2380   24.4560 C.3   203  VAL203      0.0266
    107  CG1       14.3190   10.8890   24.7460 C.3   203  VAL203      0.0020
    108  CG2       16.4630   11.6660   25.7620 C.3   203  VAL203      0.0020
    109  N         15.4170    8.3080   22.4460 N.am  204  SER204     -0.1938
    110  CA        14.8890    7.7460   21.1910 C.3   204  SER204      0.2055
    111  C         13.4080    7.3190   21.2630 C.2   204  SER204      0.2643
    112  O         12.5730    7.8740   20.5350 O.2   204  SER204     -0.2714
    113  CB        15.7840    6.5910   20.7010 C.3   204  SER204      0.2130
    114  OG        15.5260    6.2230   19.3400 O.3   204  SER204     -0.2179
    115  N         13.0810    6.3610   22.1340 N.am  205  TRP205     -0.1959
    116  CA        11.6950    5.8860   22.2120 C.3   205  TRP205      0.1771
    117  C         11.3410    5.0810   23.4600 C.2   205  TRP205      0.2620
    118  O         12.1820    4.8460   24.3160 O.2   205  TRP205     -0.2715
    119  CB        11.3540    5.0830   20.9710 C.3   205  TRP205      0.0590
    120  CG        12.1400    3.7870   20.7740 C.ar  205  TRP205      0.0006
    121  CD1       13.2980    3.6330   20.0620 C.ar  205  TRP205      0.0946
    122  CD2       11.7730    2.4700   21.2270 C.ar  205  TRP205      0.0152
    123  NE1       13.6670    2.3200   20.0430 N.ar  205  TRP205     -0.2442
    124  CE2       12.7550    1.5790   20.7490 C.ar  205  TRP205      0.0810
    125  CE3       10.6960    1.9590   21.9690 C.ar  205  TRP205      0.0012
    126  CZ2       12.7160    0.1900   21.0150 C.ar  205  TRP205      0.0191
    127  CZ3       10.6550    0.5950   22.2470 C.ar  205  TRP205      0.0001
    128  CH2       11.6510   -0.2800   21.7570 C.ar  205  TRP205      0.0015
    129  N         10.0880    4.6490   23.5530 N.am  206  GLY206     -0.1940
    130  CA         9.6430    3.8310   24.6950 C.3   206  GLY206      0.2014
    131  C          8.1730    3.5040   24.5920 C.2   206  GLY206      0.2639
    132  O          7.4230    4.2730   23.9930 O.2   206  GLY206     -0.2714
    133  N          7.7630    2.3690   25.1570 N.am  207  GLU207     -0.1963
    134  CA         6.3250    1.9610   25.1660 C.3   207  GLU207      0.1733
    135  C          5.6070    2.7730   26.2390 C.2   207  GLU207      0.2617
    136  O          5.5160    2.3550   27.4060 O.2   207  GLU207     -0.2715
    137  CB         6.1940    0.4430   25.3800 C.3   207  GLU207      0.0429
    138  CG         6.9120   -0.3380   24.2830 C.3   207  GLU207      0.1163
    139  CD         6.8990   -1.8590   24.4820 C.2   207  GLU207      0.3649
    140  OE1        5.8070   -2.4320   24.7190 O.co2 207  GLU207     -0.2457
    141  OE2        7.9810   -2.4800   24.3610 O.co2 207  GLU207     -0.2457
    142  N          5.1490    3.9700   25.8530 N.am  208  GLY208     -0.1940
    143  CA         4.6060    4.9320   26.8250 C.3   208  GLY208      0.2014
    144  C          5.7190    5.6540   27.5820 C.2   208  GLY208      0.2639
    145  O          6.8440    5.7970   27.0790 O.2   208  GLY208     -0.2714
    146  N          5.4260    6.1010   28.7920 N.am  209  CYS209     -0.1967
    147  CA         6.4040    6.7870   29.6130 C.3   209  CYS209      0.1712
    148  C          6.2800    6.2430   31.0060 C.2   209  CYS209      0.2296
    149  O          5.1830    6.2420   31.5590 O.2   209  CYS209     -0.2864
    150  CB         6.1060    8.2950   29.6780 C.3   209  CYS209      0.0983
    151  SG         5.9820    9.0900   28.0790 S.3   209  CYS209     -0.0798
    152  N         13.2770    3.1360   29.1060 N.3   216  GLY216     -0.1210
    153  CA        13.4990    4.1110   28.0180 C.3   216  GLY216      0.1956
    154  C         14.6110    3.5970   27.1140 C.2   216  GLY216      0.2612
    155  O         15.6190    3.0530   27.6090 O.2   216  GLY216     -0.2717
    156  N         14.4140    3.7110   25.8120 N.am  217  ILE217     -0.1965
    157  CA        15.4300    3.2810   24.8510 C.3   217  ILE217      0.1727
    158  C         16.1570    4.5130   24.2200 C.2   217  ILE217      0.2616
    159  O         15.5120    5.4590   23.7450 O.2   217  ILE217     -0.2715
    160  CB        14.8530    2.3470   23.7210 C.3   217  ILE217      0.0290
    161  CG1       13.7210    1.4000   24.2520 C.3   217  ILE217      0.0022
    162  CG2       15.9720    1.5660   23.0500 C.3   217  ILE217      0.0023
    163  CD1       14.1120    0.4830   25.4240 C.3   217  ILE217      0.0001
    164  N         17.4860    4.4260   24.1600 N.am  218  TYR218     -0.1974
    165  CA        18.3510    5.5090   23.7090 C.3   218  TYR218      0.1639
    166  C         19.2250    5.0480   22.5550 C.2   218  TYR218      0.2290
    167  O         19.6980    3.8990   22.5150 O.2   218  TYR218     -0.2864
    168  CB        19.2920    5.9470   24.8790 C.3   218  TYR218      0.0560
    169  CG        18.5380    6.4850   26.0750 C.ar  218  TYR218     -0.0198
    170  CD1       17.8940    5.6160   26.9640 C.ar  218  TYR218     -0.0009
    171  CD2       18.4220    7.8490   26.2860 C.ar  218  TYR218     -0.0009
    172  CE1       17.1460    6.0970   28.0430 C.ar  218  TYR218      0.0417
    173  CE2       17.6740    8.3490   27.3400 C.ar  218  TYR218      0.0417
    174  CZ        17.0270    7.4630   28.2200 C.ar  218  TYR218      0.1957
    175  OH        16.2790    7.9380   29.2840 O.3   218  TYR218     -0.2866
@<TRIPOS>BOND
     1    27    26   ar
     2    26    28   ar
     3    26    25    1
     4    17    18    1
     5    17    16    1
     6    18    19    1
     7    25    24    1
     8    11    12    1
     9    15    16    1
    10    15    12    1
    11    24    21    1
    12    20    21    1
    13    20    13   am
    14    12    13    1
    15    21    22    1
    16    13    14    2
    17    22    29   am
    18    22    23    2
    19    29    30    1
    20    34    33    1
    21    35    33    1
    22     4     3    2
    23    33    30    1
    24     2     1    1
    25     2     3    1
    26     2     5    1
    27    30    31    1
    28    36    37    1
    29    36    31   am
    30    44    42   ar
    31    44    46   ar
    32     5     6    1
    33    42    41   ar
    34    37    38    1
    35    37    40    1
    36    31    32    2
    37    38    39    2
    38    47    46    1
    39    46    45   ar
    40    41    40    1
    41    41    43   ar
    42     6     8   ar
    43     6     7   ar
    44     8    10   ar
    45    45    43   ar
    46     7     9   ar
    47    10     9   ar
    48    65    63   ar
    49    65    67   ar
    50    63    62   ar
    51   114   113    1
    52    67    66   ar
    53    62    61    1
    54    62    64   ar
    55    61    58    1
    56    59    58    1
    57    59    60    2
    58    58    57    1
    59   123   121   ar
    60   123   124   ar
    61   121   120   ar
    62   112   111    2
    63    66    64   ar
    64   113   110    1
    65   124   126   ar
    66   124   122   ar
    67   120   119    1
    68   120   122   ar
    69   100   101    1
    70   100    97    1
    71   119   116    1
    72   126   128   ar
    73   110   111    1
    74   110   109    1
    75    99    98    2
    76    94    93    2
    77   122   125   ar
    78   111   115   am
    79    98    97    1
    80   105   104    2
    81   128   127   ar
    82   125   127   ar
    83    97    96    1
    84   115   116    1
    85   116   117    1
    86    93    92    1
    87    93    95   am
    88   109   104   am
    89   104   103    1
    90   167   166    2
    91   166   165    1
    92    92    91    1
    93   162   160    1
    94   117   129   am
    95   117   118    2
    96   102   103    1
    97   129   130    1
    98   165   164    1
    99   165   168    1
   100   160   161    1
   101   160   157    1
   102   159   158    2
   103   103   106    1
   104   132   131    2
   105   164   158   am
   106   158   157    1
   107   161   163    1
   108   138   139    1
   109   138   137    1
   110    91    88    1
   111   141   139   ar
   112   106   107    1
   113   106   108    1
   114   139   140   ar
   115   131   130    1
   116   131   133   am
   117    89    88    1
   118    89    90    2
   119    88    87    1
   120   157   156    1
   121   168   169    1
   122   133   134    1
   123   134   137    1
   124   134   135    1
   125   156   154   am
   126   142   135   am
   127   142   143    1
   128    84    83    2
   129    87    83   am
   130   169   171   ar
   131   169   170   ar
   132   135   136    2
   133   171   173   ar
   134    83    82    1
   135   143   144    1
   136   170   172   ar
   137   145   144    2
   138   154   155    2
   139   154   153    1
   140   173   174   ar
   141    51    50    2
   142   144   146   am
   143    56    54   ar
   144    82    81    1
   145    82    85    1
   146   153   152    1
   147   172   174   ar
   148   151    86    1
   149   151   150    1
   150   174   175    1
   151    81    78   am
   152    86    85    1
   153    53    54    1
   154    53    52    1
   155    80    77    1
   156    54    55   ar
   157    50    49    1
   158   146   147    1
   159    78    79    2
   160    78    77    1
   161   147   150    1
   162   147   148    1
   163    49    52    1
   164    49    48    1
   165    77    76    1
   166    75    73   ar
   167    74    73   ar
   168    76    70   am
   169   148   149    2
   170    73    72    1
   171    70    71    2
   172    70    69    1
   173    72    69    1
   174    69    68    1
