@<TRIPOS>MOLECULE
tmp/2cjpB00.pdb
 132 130 0 0 0
SMALL
GASTEIGER

@<TRIPOS>ATOM
      1  N         16.6640   91.6190   40.7560 N.3    31  PHE31      -0.1241
      2  CA        15.9970   92.7710   40.1250 C.3    31  PHE31       0.1605
      3  C         15.3520   92.3980   38.7810 C.2    31  PHE31       0.2264
      4  O         15.9700   91.7220   37.9580 O.2    31  PHE31      -0.2867
      5  CB        17.0070   93.9170   39.9090 C.3    31  PHE31       0.0534
      6  CG        16.4470   95.1130   39.1550 C.ar   31  PHE31      -0.0203
      7  CD1       15.8890   96.1850   39.8420 C.ar   31  PHE31      -0.0042
      8  CD2       16.5030   95.1710   37.7580 C.ar   31  PHE31      -0.0042
      9  CE1       15.3690   97.2980   39.1500 C.ar   31  PHE31      -0.0003
     10  CE2       15.9900   96.2670   37.0560 C.ar   31  PHE31      -0.0003
     11  CZ        15.4200   97.3370   37.7580 C.ar   31  PHE31      -0.0000
     12  N         20.8210   86.9740   41.0340 N.3   103  ASP103     -0.1239
     13  CA        21.0080   88.3650   40.5490 C.3   103  ASP103      0.1674
     14  C         21.5280   89.3120   41.6470 C.2   103  ASP103      0.2266
     15  O         22.5670   89.0250   42.2510 O.2   103  ASP103     -0.2867
     16  CB        19.7240   88.8780   39.8520 C.3   103  ASP103      0.1410
     17  CG        19.9050   90.2350   39.1990 C.2   103  ASP103      0.3668
     18  OD1       20.5930   90.3200   38.1550 O.co2 103  ASP103     -0.2456
     19  OD2       19.3500   91.2200   39.7330 O.co2 103  ASP103     -0.2456
     20  N         21.8070  100.8280   30.8010 N.3   152  TYR152     -0.1241
     21  CA        20.8090  100.8840   31.8710 C.3   152  TYR152      0.1605
     22  C         21.3620  101.3140   33.2300 C.2   152  TYR152      0.2264
     23  O         20.7200  102.1000   33.9320 O.2   152  TYR152     -0.2867
     24  CB        20.0030   99.5770   31.9620 C.3   152  TYR152      0.0534
     25  CG        20.7390   98.3720   32.5230 C.ar  152  TYR152     -0.0201
     26  CD1       20.4430   97.8830   33.8010 C.ar  152  TYR152     -0.0009
     27  CD2       21.7110   97.7080   31.7710 C.ar  152  TYR152     -0.0009
     28  CE1       21.1060   96.7630   34.3210 C.ar  152  TYR152      0.0417
     29  CE2       22.3820   96.5910   32.2810 C.ar  152  TYR152      0.0417
     30  CZ        22.0770   96.1250   33.5540 C.ar  152  TYR152      0.1957
     31  OH        22.7460   95.0220   34.0520 O.3   152  TYR152     -0.2866
     32  N         20.0800  104.6310   35.1950 N.3   156  PHE156     -0.1241
     33  CA        19.4720  104.4030   36.5100 C.3   156  PHE156      0.1605
     34  C         20.0090  105.3450   37.5990 C.2   156  PHE156      0.2264
     35  O         19.4400  105.4050   38.6930 O.2   156  PHE156     -0.2867
     36  CB        19.7300  102.9570   36.9560 C.3   156  PHE156      0.0534
     37  CG        18.7810  101.9290   36.3680 C.ar  156  PHE156     -0.0203
     38  CD1       17.9720  102.2160   35.2640 C.ar  156  PHE156     -0.0042
     39  CD2       18.7280  100.6420   36.9190 C.ar  156  PHE156     -0.0042
     40  CE1       17.1130  101.2460   34.7300 C.ar  156  PHE156     -0.0003
     41  CE2       17.8770   99.6690   36.3940 C.ar  156  PHE156     -0.0003
     42  CZ        17.0650   99.9710   35.2990 C.ar  156  PHE156     -0.0000
     43  N         11.1070   93.1040   30.6030 N.3   178  ILE178     -0.1245
     44  CA        12.3050   92.6920   31.3310 C.3   178  ILE178      0.1561
     45  C         12.3190   91.1810   31.5420 C.2   178  ILE178      0.2260
     46  O         13.2910   90.5230   31.1860 O.2   178  ILE178     -0.2867
     47  CB        12.4590   93.4670   32.6720 C.3   178  ILE178      0.0252
     48  CG1       12.7810   94.9350   32.3900 C.3   178  ILE178      0.0019
     49  CG2       13.5610   92.8450   33.5440 C.3   178  ILE178      0.0019
     50  CD1       12.6440   95.8530   33.5840 C.3   178  ILE178      0.0001
     51  N         12.9530   89.0320   28.4480 N.3   181  TYR181     -0.1241
     52  CA        14.1910   89.3690   27.7420 C.3   181  TYR181      0.1605
     53  C         15.1190   88.1640   27.6060 C.2   181  TYR181      0.2264
     54  O         15.2530   87.3670   28.5400 O.2   181  TYR181     -0.2867
     55  CB        14.9080   90.5030   28.4710 C.3   181  TYR181      0.0534
     56  CG        16.1060   91.0600   27.7440 C.ar  181  TYR181     -0.0201
     57  CD1       15.9510   91.8170   26.5800 C.ar  181  TYR181     -0.0009
     58  CD2       17.3980   90.8570   28.2320 C.ar  181  TYR181     -0.0009
     59  CE1       17.0520   92.3420   25.9120 C.ar  181  TYR181      0.0417
     60  CE2       18.5050   91.3920   27.5800 C.ar  181  TYR181      0.0417
     61  CZ        18.3270   92.1260   26.4190 C.ar  181  TYR181      0.1957
     62  OH        19.4110   92.6480   25.7590 O.3   181  TYR181     -0.2866
     63  N         20.7550   96.0470   28.5410 N.3   187  PHE187     -0.1241
     64  CA        19.5980   96.9160   28.3020 C.3   187  PHE187      0.1605
     65  C         20.0600   98.3400   28.0270 C.2   187  PHE187      0.2264
     66  O         21.0240   98.8040   28.6240 O.2   187  PHE187     -0.2867
     67  CB        18.6710   96.9490   29.5260 C.3   187  PHE187      0.0534
     68  CG        17.7690   95.7580   29.6520 C.ar  187  PHE187     -0.0203
     69  CD1       16.4320   95.8440   29.2820 C.ar  187  PHE187     -0.0042
     70  CD2       18.2440   94.5550   30.1600 C.ar  187  PHE187     -0.0042
     71  CE1       15.5820   94.7410   29.4050 C.ar  187  PHE187     -0.0003
     72  CE2       17.4050   93.4530   30.2890 C.ar  187  PHE187     -0.0003
     73  CZ        16.0720   93.5490   29.9120 C.ar  187  PHE187     -0.0000
     74  N         18.3780  102.3970   27.7260 N.3   189  PHE189     -0.1241
     75  CA        17.2080  103.2610   27.9560 C.3   189  PHE189      0.1605
     76  C         17.4430  104.7210   27.5200 C.2   189  PHE189      0.2264
     77  O         17.5760  105.6140   28.3680 O.2   189  PHE189     -0.2867
     78  CB        16.7440  103.2070   29.4220 C.3   189  PHE189      0.0534
     79  CG        16.1670  101.8780   29.8360 C.ar  189  PHE189     -0.0203
     80  CD1       14.8970  101.4940   29.4200 C.ar  189  PHE189     -0.0042
     81  CD2       16.8950  101.0160   30.6600 C.ar  189  PHE189     -0.0042
     82  CE1       14.3570  100.2690   29.8160 C.ar  189  PHE189     -0.0003
     83  CE2       16.3720   99.7900   31.0550 C.ar  189  PHE189     -0.0003
     84  CZ        15.1020   99.4100   30.6360 C.ar  189  PHE189     -0.0000
     85  N         21.2270   99.9020   42.3500 N.3   233  TYR233     -0.1241
     86  CA        22.1940  100.3100   41.3330 C.3   233  TYR233      0.1605
     87  C         22.7710  101.6970   41.6330 C.2   233  TYR233      0.2264
     88  O         23.9290  101.9720   41.3310 O.2   233  TYR233     -0.2867
     89  CB        21.5430  100.3250   39.9470 C.3   233  TYR233      0.0534
     90  CG        21.1470   98.9680   39.4050 C.ar  233  TYR233     -0.0201
     91  CD1       22.0740   98.1580   38.7360 C.ar  233  TYR233     -0.0009
     92  CD2       19.8440   98.4990   39.5500 C.ar  233  TYR233     -0.0009
     93  CE1       21.7010   96.9090   38.2290 C.ar  233  TYR233      0.0417
     94  CE2       19.4610   97.2540   39.0510 C.ar  233  TYR233      0.0417
     95  CZ        20.3870   96.4670   38.3880 C.ar  233  TYR233      0.1957
     96  OH        19.9970   95.2330   37.8970 O.3   233  TYR233     -0.2866
     97  N         22.3710   87.8410   30.1090 N.3   264  LEU264     -0.1231
     98  CA        23.1770   89.0430   29.8410 C.3   264  LEU264      0.1693
     99  C         24.3460   89.2400   30.8230 C.2   264  LEU264      0.2591
    100  O         25.3770   89.8030   30.4510 O.2   264  LEU264     -0.2718
    101  CB        22.3000   90.3050   29.7940 C.3   264  LEU264      0.0284
    102  CG        21.7930   90.9430   31.0950 C.3   264  LEU264      0.0019
    103  CD1       21.3320   92.3880   30.8580 C.3   264  LEU264      0.0001
    104  CD2       20.6870   90.1320   31.7280 C.3   264  LEU264      0.0001
    105  N         24.1740   88.7780   32.0610 N.am  265  VAL265     -0.1980
    106  CA        25.2010   88.9130   33.1110 C.3   265  VAL265      0.1595
    107  C         26.4390   88.0830   32.7510 C.2   265  VAL265      0.2287
    108  O         27.5740   88.4720   33.0260 O.2   265  VAL265     -0.2864
    109  CB        24.6470   88.4950   34.5150 C.3   265  VAL265      0.0276
    110  CG1       25.7240   88.6150   35.5990 C.3   265  VAL265      0.0022
    111  CG2       23.4430   89.3470   34.8980 C.3   265  VAL265      0.0022
    112  N         18.2660   84.5910   31.6430 N.3   298  HIS298     -0.1226
    113  CA        18.5700   85.1170   32.9840 C.3   298  HIS298      0.1752
    114  C         17.7470   84.5250   34.1360 C.2   298  HIS298      0.2596
    115  O         18.2940   84.2520   35.2110 O.2   298  HIS298     -0.2718
    116  CB        18.4790   86.6510   32.9710 C.3   298  HIS298      0.0759
    117  CG        18.6810   87.3050   34.3070 C.ar  298  HIS298      0.0818
    118  ND1       19.9200   87.7090   34.7590 N.ar  298  HIS298     -0.2268
    119  CD2       17.7930   87.6830   35.2590 C.ar  298  HIS298      0.1154
    120  CE1       19.7890   88.2830   35.9430 C.ar  298  HIS298      0.1986
    121  NE2       18.5080   88.2810   36.2690 N.ar  298  HIS298     -0.2212
    122  N         16.4530   84.3170   33.9110 N.am  299  PHE299     -0.1976
    123  CA        15.5390   83.9440   34.9860 C.3   299  PHE299      0.1639
    124  C         15.4000   82.4350   35.1190 C.2   299  PHE299      0.2290
    125  O         14.3160   81.8860   34.9090 O.2   299  PHE299     -0.2864
    126  CB        14.1640   84.6090   34.7830 C.3   299  PHE299      0.0560
    127  CG        14.2180   86.1110   34.7770 C.ar  299  PHE299     -0.0200
    128  CD1       14.1730   86.8230   35.9640 C.ar  299  PHE299     -0.0042
    129  CD2       14.3290   86.8110   33.5800 C.ar  299  PHE299     -0.0042
    130  CE1       14.2260   88.2040   35.9600 C.ar  299  PHE299     -0.0003
    131  CE2       14.3850   88.1980   33.5690 C.ar  299  PHE299     -0.0003
    132  CZ        14.3380   88.8950   34.7560 C.ar  299  PHE299     -0.0000
@<TRIPOS>BOND
     1    62    61    1
     2    59    61   ar
     3    59    57   ar
     4    61    60   ar
     5    57    56   ar
     6    76    75    1
     7    76    77    2
     8    60    58   ar
     9    53    52    1
    10    53    54    2
    11    74    75    1
    12    52    51    1
    13    52    55    1
    14    56    58   ar
    15    56    55    1
    16    75    78    1
    17    65    64    1
    18    65    66    2
    19    64    63    1
    20    64    67    1
    21    69    71   ar
    22    69    68   ar
    23    71    73   ar
    24    80    82   ar
    25    80    79   ar
    26    78    79    1
    27    67    68    1
    28    68    70   ar
    29   101    98    1
    30   101   102    1
    31    82    84   ar
    32    79    81   ar
    33    98    97    1
    34    98    99    1
    35    73    72   ar
    36    70    72   ar
    37   100    99    2
    38    43    44    1
    39    84    83   ar
    40    81    83   ar
    41    20    21    1
    42    99   105   am
    43   103   102    1
    44   102   104    1
    45    46    45    2
    46    44    45    1
    47    44    47    1
    48   112   113    1
    49    27    29   ar
    50    27    25   ar
    51    21    24    1
    52    21    22    1
    53    24    25    1
    54   105   106    1
    55    29    30   ar
    56    48    47    1
    57    48    50    1
    58    25    26   ar
    59    47    49    1
    60   107   108    2
    61   107   106    1
    62   116   113    1
    63   116   117    1
    64   113   114    1
    65   106   109    1
    66    22    23    2
    67    30    31    1
    68    30    28   ar
    69   131   129   ar
    70   131   132   ar
    71   129   127   ar
    72    26    28   ar
    73   122   114   am
    74   122   123    1
    75   114   115    2
    76   117   118   ar
    77   117   119   ar
    78   109   111    1
    79   109   110    1
    80    40    38   ar
    81    40    42   ar
    82   132   130   ar
    83   118   120   ar
    84   127   126    1
    85   127   128   ar
    86   126   123    1
    87   125   124    2
    88   123   124    1
    89    32    33    1
    90   119   121   ar
    91    38    37   ar
    92    42    41   ar
    93   120   121   ar
    94   130   128   ar
    95    37    39   ar
    96    37    36    1
    97    41    39   ar
    98    33    36    1
    99    33    34    1
   100    10     8   ar
   101    10    11   ar
   102    34    35    2
   103     8     6   ar
   104    11     9   ar
   105    96    95    1
   106     4     3    2
   107    18    17   ar
   108    93    95   ar
   109    93    91   ar
   110    95    94   ar
   111    91    90   ar
   112     3     2    1
   113    94    92   ar
   114     9     7   ar
   115     6     7   ar
   116     6     5    1
   117    17    19   ar
   118    17    16    1
   119    90    92   ar
   120    90    89    1
   121    16    13    1
   122     5     2    1
   123    89    86    1
   124     2     1    1
   125    13    12    1
   126    13    14    1
   127    88    87    2
   128    86    87    1
   129    86    85    1
   130    14    15    2
