@<TRIPOS>MOLECULE
tmp/2cjwA00.pdb
 112 106 0 0 0
SMALL
GASTEIGER

@<TRIPOS>ATOM
      1  N        -11.3570   73.1380   -9.7760 N.3    12  GLN12      -0.1231
      2  CA       -12.2160   72.8990   -8.6280 C.3    12  GLN12       0.1698
      3  C        -11.8330   71.5950   -7.9360 C.2    12  GLN12       0.2593
      4  O        -11.6000   70.5660   -8.5880 O.2    12  GLN12      -0.2718
      5  CB       -13.7040   72.8900   -9.0190 C.3    12  GLN12       0.0381
      6  CG       -14.6370   72.8190   -7.7920 C.3    12  GLN12       0.0905
      7  CD       -16.1160   73.0230   -8.1290 C.2    12  GLN12       0.2608
      8  OE1      -16.5250   72.9410   -9.2900 O.2    12  GLN12      -0.2717
      9  NE2      -16.9190   73.2830   -7.1060 N.am   12  GLN12      -0.0878
     10  N        -11.7390   71.6600   -6.6080 N.am   13  GLY13      -0.1942
     11  CA       -11.5360   70.4680   -5.7920 C.3    13  GLY13       0.2014
     12  C        -10.0870   70.1440   -5.4580 C.2    13  GLY13       0.2639
     13  O         -9.8200   69.1210   -4.8330 O.2    13  GLY13      -0.2714
     14  N         -9.1470   70.9900   -5.8750 N.am   14  VAL14      -0.1963
     15  CA        -7.7250   70.6880   -5.6460 C.3    14  VAL14       0.1727
     16  C         -7.2590   71.0980   -4.2220 C.2    14  VAL14       0.2617
     17  O         -6.1870   70.6890   -3.7790 O.2    14  VAL14      -0.2715
     18  CB        -6.7770   71.3240   -6.7080 C.3    14  VAL14       0.0290
     19  CG1       -7.0830   70.7910   -8.1460 C.3    14  VAL14       0.0023
     20  CG2       -6.8350   72.8380   -6.6610 C.3    14  VAL14       0.0023
     21  N         -8.0700   71.8990   -3.5330 N.am   15  GLY15      -0.1940
     22  CA        -7.7800   72.3250   -2.1490 C.3    15  GLY15       0.2014
     23  C         -7.4100   73.7850   -1.9550 C.2    15  GLY15       0.2639
     24  O         -6.8200   74.1400   -0.9330 O.2    15  GLY15      -0.2714
     25  N         -7.7730   74.6460   -2.9120 N.am   16  LYS16      -0.1963
     26  CA        -7.5010   76.0770   -2.7950 C.3    16  LYS16       0.1728
     27  C         -8.1350   76.6860   -1.5330 C.2    16  LYS16       0.2617
     28  O         -7.4540   77.3820   -0.7740 O.2    16  LYS16      -0.2715
     29  CB        -7.9650   76.8360   -4.0450 C.3    16  LYS16       0.0311
     30  CG        -7.2630   76.3580   -5.3390 C.3    16  LYS16       0.0038
     31  CD        -7.7260   77.1510   -6.5920 C.3    16  LYS16       0.0206
     32  CE        -9.2490   77.0540   -6.8590 C.3    16  LYS16       0.1093
     33  NZ        -9.8000   75.6840   -7.0320 N.3    16  LYS16      -0.1314
     34  N         -9.4120   76.3960   -1.3080 N.am   17  SER17      -0.1936
     35  CA       -10.1300   76.9870   -0.1540 C.3    17  SER17       0.2055
     36  C         -9.6340   76.4480    1.1900 C.2    17  SER17       0.2643
     37  O         -9.5800   77.1780    2.1870 O.2    17  SER17      -0.2714
     38  CB       -11.6250   76.7680   -0.3130 C.3    17  SER17       0.2130
     39  OG       -12.1030   77.6300   -1.3290 O.3    17  SER17      -0.2179
     40  N         -9.2670   75.1750    1.1880 N.am   18  THR18      -0.1950
     41  CA        -8.7380   74.4790    2.3610 C.3    18  THR18       0.1897
     42  C         -7.3610   75.0460    2.7120 C.2    18  THR18       0.2313
     43  O         -7.1140   75.3790    3.8720 O.2    18  THR18      -0.2863
     44  CB        -8.7130   72.9400    2.1570 C.3    18  THR18       0.1794
     45  OG1      -10.0130   72.4860    1.7590 O.3    18  THR18      -0.2208
     46  CG2       -8.3270   72.2040    3.4540 C.3    18  THR18       0.0378
     47  N         -9.0500   83.9850   -2.9110 N.3    54  ASP54      -0.1239
     48  CA        -9.5420   82.6590   -3.2660 C.3    54  ASP54       0.1674
     49  C        -10.9200   82.7220   -3.9530 C.2    54  ASP54       0.2266
     50  O        -11.8570   82.0460   -3.5470 O.2    54  ASP54      -0.2867
     51  CB        -9.5930   81.7790   -1.9970 C.3    54  ASP54       0.1410
     52  CG       -10.1700   80.3950   -2.2510 C.2    54  ASP54       0.3668
     53  OD1       -9.8250   79.7670   -3.2820 O.co2  54  ASP54      -0.2456
     54  OD2      -10.9810   79.9360   -1.4120 O.co2  54  ASP54      -0.2456
     55  N        -13.4870   80.1380   -8.3580 N.3    57  GLU57      -0.1245
     56  CA       -14.7160   79.4050   -8.6940 C.3    57  GLU57       0.1567
     57  C        -15.8560   80.3320   -9.1290 C.2    57  GLU57       0.2260
     58  O        -16.0690   81.3990   -8.5380 O.2    57  GLU57      -0.2867
     59  CB       -15.1670   78.5370   -7.5090 C.3    57  GLU57       0.0388
     60  CG       -16.2780   77.5260   -7.8290 C.3    57  GLU57       0.1160
     61  CD       -16.9380   76.9370   -6.5860 C.2    57  GLU57       0.3649
     62  OE1      -16.2220   76.5630   -5.6290 O.co2  57  GLU57      -0.2457
     63  OE2      -18.1840   76.8340   -6.5740 O.co2  57  GLU57      -0.2457
     64  N         -0.8300   69.9500   -4.3400 N.3   110  ASN110     -0.1225
     65  CA        -1.5100   69.7810   -3.0470 C.3   110  ASN110      0.1785
     66  C         -2.0100   68.3470   -2.8460 C.2   110  ASN110      0.2597
     67  O         -2.0650   67.5560   -3.7940 O.2   110  ASN110     -0.2718
     68  CB        -2.6320   70.8330   -2.8950 C.3   110  ASN110      0.1169
     69  CG        -3.2320   70.8800   -1.4750 C.2   110  ASN110      0.2627
     70  OD1       -2.5080   70.9390   -0.4750 O.2   110  ASN110     -0.2716
     71  ND2       -4.5530   70.8320   -1.3960 N.am  110  ASN110     -0.0877
     72  N         -2.3860   68.0200   -1.6070 N.am  111  LYS111     -0.1980
     73  CA        -2.8510   66.6950   -1.2080 C.3   111  LYS111      0.1596
     74  C         -1.7130   65.6660   -1.1570 C.2   111  LYS111      0.2287
     75  O         -1.9240   64.4810   -1.4080 O.2   111  LYS111     -0.2864
     76  CB        -4.0570   66.1970   -2.0480 C.3   111  LYS111      0.0298
     77  CG        -5.1750   67.2300   -2.2310 C.3   111  LYS111      0.0038
     78  CD        -6.4910   66.5750   -2.6560 C.3   111  LYS111      0.0206
     79  CE        -7.5760   67.6030   -2.9410 C.3   111  LYS111      0.1093
     80  NZ        -8.8770   66.9170   -3.2130 N.3   111  LYS111     -0.1314
     81  N         -0.4550   64.1950    1.2040 N.3   113  ASP113     -0.1225
     82  CA        -0.7610   63.1330    2.1780 C.3   113  ASP113      0.1805
     83  C         -1.4310   61.9110    1.5250 C.2   113  ASP113      0.2597
     84  O         -1.4340   60.8180    2.0880 O.2   113  ASP113     -0.2718
     85  CB        -1.6610   63.6910    3.2940 C.3   113  ASP113      0.1424
     86  CG        -2.9700   64.2870    2.7560 C.2   113  ASP113      0.3668
     87  OD1       -2.9380   65.3380    2.0830 O.co2 113  ASP113     -0.2456
     88  OD2       -4.0300   63.7050    3.0180 O.co2 113  ASP113     -0.2456
     89  N         -1.9990   62.0900    0.3270 N.am  114  LEU114     -0.1979
     90  CA        -2.6920   60.9880   -0.3320 C.3   114  LEU114      0.1596
     91  C         -1.7390   60.1940   -1.2220 C.2   114  LEU114      0.2287
     92  O         -1.9510   60.0750   -2.4330 O.2   114  LEU114     -0.2864
     93  CB        -3.9110   61.5030   -1.1110 C.3   114  LEU114      0.0297
     94  CG        -4.9030   62.3340   -0.2810 C.3   114  LEU114      0.0022
     95  CD1       -6.0190   62.8870   -1.1640 C.3   114  LEU114      0.0001
     96  CD2       -5.4590   61.5120    0.8880 C.3   114  LEU114      0.0001
     97  N          0.3050   69.8060    1.7720 N.3   137  SER137     -0.1202
     98  CA        -0.9200   69.2160    2.2350 C.3   137  SER137      0.2020
     99  C         -1.5990   70.1680    3.2080 C.2   137  SER137      0.2619
    100  O         -1.0500   70.4690    4.2830 O.2   137  SER137     -0.2717
    101  CB        -0.6740   67.8640    2.9190 C.3   137  SER137      0.2103
    102  OG        -1.9040   67.3240    3.3790 O.3   137  SER137     -0.2182
    103  N         -2.7790   70.6430    2.8200 N.am  138  ALA138     -0.1965
    104  CA        -3.6320   71.3890    3.7320 C.3   138  ALA138      0.1728
    105  C         -4.1930   70.4720    4.8290 C.2   138  ALA138      0.2616
    106  O         -4.4320   70.9330    5.9510 O.2   138  ALA138     -0.2715
    107  CB        -4.7590   72.0950    2.9760 C.3   138  ALA138      0.0334
    108  N         -4.3830   69.1850    4.5140 N.am  139  ALA139     -0.1977
    109  CA        -4.9450   68.2280    5.4800 C.3   139  ALA139      0.1597
    110  C         -3.9930   67.9450    6.6410 C.2   139  ALA139      0.2287
    111  O         -4.4310   67.6740    7.7520 O.2   139  ALA139     -0.2864
    112  CB        -5.3430   66.9230    4.8030 C.3   139  ALA139      0.0319
@<TRIPOS>BOND
     1     1     2    1
     2     8     7    2
     3    57    56    1
     4    57    58    2
     5     5     2    1
     6     5     6    1
     7    56    55    1
     8    56    59    1
     9     2     3    1
    10     4     3    2
    11    19    18    1
    12     7     6    1
    13     7     9   am
    14     3    10   am
    15    60    59    1
    16    60    61    1
    17    33    32    1
    18    32    31    1
    19    18    20    1
    20    18    15    1
    21    10    11    1
    22    31    30    1
    23    61    63   ar
    24    61    62   ar
    25    14    15    1
    26    14    12   am
    27    11    12    1
    28    15    16    1
    29    12    13    2
    30    30    29    1
    31    64    65    1
    32    16    17    2
    33    16    21   am
    34    29    26    1
    35    49    50    2
    36    49    48    1
    37    67    66    2
    38    21    22    1
    39    53    52   ar
    40    48    47    1
    41    48    51    1
    42    80    79    1
    43    65    68    1
    44    65    66    1
    45    79    78    1
    46    25    26    1
    47    25    23   am
    48    68    69    1
    49    66    72   am
    50    26    27    1
    51    78    77    1
    52    92    91    2
    53    52    51    1
    54    52    54   ar
    55    77    76    1
    56    22    23    1
    57    76    73    1
    58    23    24    2
    59    72    73    1
    60    27    34   am
    61    27    28    2
    62    69    71   am
    63    69    70    2
    64    75    74    2
    65    39    38    1
    66    34    35    1
    67    91    90    1
    68    73    74    1
    69    95    94    1
    70    93    90    1
    71    93    94    1
    72    90    89    1
    73    38    35    1
    74    94    96    1
    75    35    36    1
    76    89    83   am
    77    40    36   am
    78    40    41    1
    79    36    37    2
    80    81    82    1
    81    83    84    2
    82    83    82    1
    83    45    44    1
    84    97    98    1
    85    87    86   ar
    86    44    41    1
    87    44    46    1
    88    82    85    1
    89    98   101    1
    90    98    99    1
    91    41    42    1
    92    42    43    2
    93    86    88   ar
    94    86    85    1
    95   103    99   am
    96   103   104    1
    97   101   102    1
    98   107   104    1
    99    99   100    2
   100   104   105    1
   101   108   105   am
   102   108   109    1
   103   112   109    1
   104   105   106    2
   105   109   110    1
   106   110   111    2
