@<TRIPOS>MOLECULE
tmp/2cjxA00.pdb
 91 87 0 0 0
SMALL
GASTEIGER

@<TRIPOS>ATOM
      1  N         31.9670   38.8720   24.7640 N.3    34  THR34      -0.1203
      2  CA        32.2130   38.1080   23.5490 C.3    34  THR34       0.1994
      3  C         31.3590   36.8520   23.4490 C.2    34  THR34       0.2619
      4  O         30.8610   36.3380   24.4530 O.2    34  THR34      -0.2717
      5  CB        33.6850   37.6740   23.4580 C.3    34  THR34       0.1784
      6  OG1       33.9840   36.7760   24.5340 O.3    34  THR34      -0.2211
      7  CG2       34.6040   38.8810   23.5430 C.3    34  THR34       0.0376
      8  N         31.1950   36.3640   22.2240 N.am   35  SER35      -0.1937
      9  CA        30.4330   35.1480   21.9890 C.3    35  SER35       0.2055
     10  C         31.2970   34.0080   22.5110 C.2    35  SER35       0.2643
     11  O         32.5150   34.0120   22.3280 O.2    35  SER35      -0.2714
     12  CB        30.1680   34.9690   20.4940 C.3    35  SER35       0.2130
     13  OG        31.3830   34.9250   19.7700 O.3    35  SER35      -0.2179
     14  N         30.6700   33.0350   23.1610 N.am   36  ARG36      -0.1963
     15  CA        31.4040   31.9130   23.7320 C.3    36  ARG36       0.1729
     16  C         31.4850   30.7150   22.7880 C.2    36  ARG36       0.2616
     17  O         30.7970   29.7100   22.9640 O.2    36  ARG36      -0.2715
     18  CB        30.7640   31.5220   25.0700 C.3    36  ARG36       0.0348
     19  CG        30.7820   32.6740   26.0850 C.3    36  ARG36       0.0492
     20  CD        30.1640   32.3070   27.4340 C.3    36  ARG36       0.2205
     21  NE        30.8030   31.1320   28.0170 N.pl3  36  ARG36      -0.0865
     22  CZ        30.3240   29.8970   27.9210 C.cat  36  ARG36       0.5346
     23  NH1       29.1870   29.6720   27.2710 N.pl3  36  ARG36       0.1354
     24  NH2       30.9930   28.8830   28.4560 N.pl3  36  ARG36       0.1354
     25  N         32.3450   30.8390   21.7840 N.am   37  SER37      -0.1950
     26  CA        32.5380   29.7910   20.7930 C.3    37  SER37       0.1924
     27  C         32.8760   28.4550   21.4410 C.2    37  SER37       0.2314
     28  O         33.7350   28.3770   22.3210 O.2    37  SER37      -0.2863
     29  CB        33.6580   30.1840   19.8280 C.3    37  SER37       0.2116
     30  OG        33.3890   31.4380   19.2280 O.3    37  SER37      -0.2180
     31  N         28.3930   30.1150   30.8350 N.3    92  SER92      -0.1202
     32  CA        28.3630   31.5300   30.4750 C.3    92  SER92       0.2020
     33  C         29.6080   32.2630   30.9560 C.2    92  SER92       0.2619
     34  O         30.5470   31.6530   31.4630 O.2    92  SER92      -0.2717
     35  CB        27.1200   32.1820   31.0940 C.3    92  SER92       0.2103
     36  OG        26.8930   33.4850   30.5770 O.3    92  SER92      -0.2182
     37  N         29.6250   33.5750   30.7570 N.am   93  HIS93      -0.1961
     38  CA        30.7240   34.3960   31.2370 C.3    93  HIS93       0.1787
     39  C         30.4440   34.5120   32.7250 C.2    93  HIS93       0.2621
     40  O         29.3080   34.3140   33.1580 O.2    93  HIS93      -0.2715
     41  CB        30.6720   35.7930   30.6180 C.3    93  HIS93       0.0785
     42  CG        31.1680   35.8560   29.2100 C.ar   93  HIS93       0.0821
     43  ND1       32.4930   35.6700   28.8810 N.ar   93  HIS93      -0.2267
     44  CD2       30.5230   36.1100   28.0470 C.ar   93  HIS93       0.1154
     45  CE1       32.6430   35.8100   27.5750 C.ar   93  HIS93       0.1986
     46  NE2       31.4630   36.0770   27.0460 N.ar   93  HIS93      -0.2212
     47  N         31.4630   34.8340   33.5100 N.am   94  GLY94      -0.1940
     48  CA        31.2380   34.9710   34.9340 C.3    94  GLY94       0.2014
     49  C         32.3900   35.5950   35.6820 C.2    94  GLY94       0.2638
     50  O         33.4510   35.8670   35.1200 O.2    94  GLY94      -0.2714
     51  N         32.1530   35.8440   36.9620 N.am   95  GLU95      -0.1977
     52  CA        33.1540   36.3940   37.8550 C.3    95  GLU95       0.1602
     53  C         32.8420   35.7160   39.1790 C.2    95  GLU95       0.2287
     54  O         31.8600   34.9790   39.2730 O.2    95  GLU95      -0.2864
     55  CB        33.0250   37.9210   37.9400 C.3    95  GLU95       0.0415
     56  CG        33.2790   38.6190   36.6050 C.3    95  GLU95       0.1163
     57  CD        34.7010   38.4370   36.0910 C.2    95  GLU95       0.3649
     58  OE1       35.3190   37.3800   36.3520 O.co2  95  GLU95      -0.2457
     59  OE2       35.1950   39.3540   35.4020 O.co2  95  GLU95      -0.2457
     60  N         30.3460   26.3580   34.5390 N.3   133  GLN133     -0.1231
     61  CA        31.4520   26.5880   33.6170 C.3   133  GLN133      0.1698
     62  C         31.4400   28.0870   33.3510 C.2   133  GLN133      0.2592
     63  O         30.6480   28.5780   32.5490 O.2   133  GLN133     -0.2718
     64  CB        31.2440   25.8140   32.3100 C.3   133  GLN133      0.0381
     65  CG        32.2090   26.1940   31.1780 C.3   133  GLN133      0.0905
     66  CD        33.6610   26.2410   31.6280 C.2   133  GLN133      0.2608
     67  OE1       34.1590   25.3140   32.2720 O.2   133  GLN133     -0.2717
     68  NE2       34.3510   27.3260   31.2830 N.am  133  GLN133     -0.0878
     69  N         32.3060   28.8050   34.0580 N.am  134  ALA134     -0.1966
     70  CA        32.4060   30.2520   33.9360 C.3   134  ALA134      0.1728
     71  C         33.5960   30.7250   34.7540 C.2   134  ALA134      0.2616
     72  O         34.0310   30.0450   35.6810 O.2   134  ALA134     -0.2715
     73  CB        31.1260   30.9130   34.4520 C.3   134  ALA134      0.0334
     74  N         34.1270   31.8900   34.4070 N.am  135  CYS135     -0.1968
     75  CA        35.2590   32.4350   35.1380 C.3   135  CYS135      0.1712
     76  C         34.8570   32.8310   36.5560 C.2   135  CYS135      0.2296
     77  O         33.6880   33.1150   36.8180 O.2   135  CYS135     -0.2864
     78  CB        35.8160   33.6490   34.3990 C.3   135  CYS135      0.0983
     79  SG        36.6920   33.1990   32.8960 S.3   135  CYS135     -0.0798
     80  N         37.0600   34.9940   38.1920 N.3   137  GLY137     -0.1225
     81  CA        38.0240   36.0570   38.3980 C.3   137  GLY137      0.1811
     82  C         38.9320   36.1410   37.1890 C.2   137  GLY137      0.2280
     83  O         38.5940   35.6270   36.1170 O.2   137  GLY137     -0.2866
     84  N         45.5020   33.6760   36.6430 N.3   140  LEU140     -0.1245
     85  CA        45.9840   32.6190   35.7610 C.3   140  LEU140      0.1561
     86  C         46.9240   31.7050   36.5420 C.2   140  LEU140      0.2260
     87  O         47.7540   32.1740   37.3190 O.2   140  LEU140     -0.2867
     88  CB        46.7180   33.2250   34.5560 C.3   140  LEU140      0.0270
     89  CG        45.8410   33.9700   33.5420 C.3   140  LEU140      0.0019
     90  CD1       46.7100   34.7720   32.5890 C.3   140  LEU140      0.0001
     91  CD2       44.9820   32.9750   32.7740 C.3   140  LEU140      0.0001
@<TRIPOS>BOND
     1    30    29    1
     2    13    12    1
     3    29    26    1
     4    12     9    1
     5    26    27    1
     6    26    25    1
     7    27    28    2
     8    25    16   am
     9     9     8    1
    10     9    10    1
    11     8     3   am
    12    11    10    2
    13    10    14   am
    14    16    17    2
    15    16    15    1
    16    14    15    1
    17     3     2    1
    18     3     4    2
    19     5     7    1
    20     5     2    1
    21     5     6    1
    22     2     1    1
    23    15    18    1
    24    18    19    1
    25    19    20    1
    26    46    45   ar
    27    46    44   ar
    28    23    22    1
    29    20    21    1
    30    45    43   ar
    31    22    21    2
    32    22    24    1
    33    44    42   ar
    34    43    42   ar
    35    42    41    1
    36    32    31    1
    37    32    33    1
    38    32    35    1
    39    36    35    1
    40    41    38    1
    41    37    33   am
    42    37    38    1
    43    33    34    2
    44    65    66    1
    45    65    64    1
    46    38    39    1
    47    68    66   am
    48    66    67    2
    49    64    61    1
    50    63    62    2
    51    90    89    1
    52    39    40    2
    53    39    47   am
    54    91    89    1
    55    79    78    1
    56    62    61    1
    57    62    69   am
    58    47    48    1
    59    89    88    1
    60    61    60    1
    61    70    69    1
    62    70    73    1
    63    70    71    1
    64    78    75    1
    65    74    71   am
    66    74    75    1
    67    88    85    1
    68    71    72    2
    69    48    49    1
    70    50    49    2
    71    75    76    1
    72    59    57   ar
    73    49    51   am
    74    85    86    1
    75    85    84    1
    76    57    58   ar
    77    57    56    1
    78    83    82    2
    79    86    87    2
    80    76    77    2
    81    56    55    1
    82    51    52    1
    83    82    81    1
    84    52    55    1
    85    52    53    1
    86    80    81    1
    87    53    54    2
