@<TRIPOS>MOLECULE
tmp/2cjxB00.pdb
 120 123 0 0 0
SMALL
GASTEIGER

@<TRIPOS>ATOM
      1  N         40.4720   32.4150   36.0710 N.3    19  TYR19      -0.1227
      2  CA        39.7820   32.3630   34.7890 C.3    19  TYR19       0.1736
      3  C         39.4590   30.8870   34.6000 C.2    19  TYR19       0.2596
      4  O         40.0240   30.0330   35.2820 O.2    19  TYR19      -0.2718
      5  CB        40.7110   32.7390   33.6350 C.3    19  TYR19       0.0548
      6  CG        40.9450   34.2060   33.3660 C.ar   19  TYR19      -0.0200
      7  CD1       42.2170   34.7540   33.5000 C.ar   19  TYR19      -0.0009
      8  CD2       39.9290   35.0140   32.8560 C.ar   19  TYR19      -0.0009
      9  CE1       42.4810   36.0670   33.1210 C.ar   19  TYR19       0.0417
     10  CE2       40.1830   36.3330   32.4710 C.ar   19  TYR19       0.0417
     11  CZ        41.4630   36.8480   32.6040 C.ar   19  TYR19       0.1957
     12  OH        41.7360   38.1350   32.1980 O.3    19  TYR19      -0.2866
     13  N         38.5710   30.5960   33.6570 N.am   20  SER20      -0.1938
     14  CA        38.2140   29.2210   33.3230 C.3    20  SER20       0.2055
     15  C         38.4370   29.1160   31.8180 C.2    20  SER20       0.2643
     16  O         38.0280   30.0050   31.0740 O.2    20  SER20      -0.2714
     17  CB        36.7530   28.9320   33.6550 C.3    20  SER20       0.2130
     18  OG        36.4560   27.5700   33.3850 O.3    20  SER20      -0.2179
     19  N         39.0720   28.0340   31.3740 N.am   21  TRP21      -0.1959
     20  CA        39.3810   27.8580   29.9570 C.3    21  TRP21       0.1771
     21  C         38.3710   27.0910   29.1050 C.2    21  TRP21       0.2620
     22  O         37.8050   26.0800   29.5280 O.2    21  TRP21      -0.2715
     23  CB        40.7590   27.2080   29.8100 C.3    21  TRP21       0.0590
     24  CG        41.8870   28.0930   30.2430 C.ar   21  TRP21       0.0006
     25  CD1       42.4440   28.1760   31.4880 C.ar   21  TRP21       0.0946
     26  CD2       42.5810   29.0430   29.4270 C.ar   21  TRP21       0.0152
     27  NE1       43.4470   29.1210   31.4960 N.ar   21  TRP21      -0.2442
     28  CE2       43.5510   29.6660   30.2420 C.ar   21  TRP21       0.0810
     29  CE3       42.4770   29.4280   28.0830 C.ar   21  TRP21       0.0012
     30  CZ2       44.4130   30.6550   29.7560 C.ar   21  TRP21       0.0191
     31  CZ3       43.3330   30.4120   27.6000 C.ar   21  TRP21       0.0001
     32  CH2       44.2890   31.0120   28.4360 C.ar   21  TRP21       0.0015
     33  N         38.1790   27.5870   27.8850 N.am   22  ARG22      -0.1963
     34  CA        37.2570   27.0060   26.9130 C.3    22  ARG22       0.1729
     35  C         37.8770   26.9910   25.5140 C.2    22  ARG22       0.2616
     36  O         38.3230   28.0270   25.0200 O.2    22  ARG22      -0.2715
     37  CB        35.9580   27.8230   26.8870 C.3    22  ARG22       0.0348
     38  CG        35.1140   27.6640   25.6220 C.3    22  ARG22       0.0492
     39  CD        33.8020   28.4310   25.7340 C.3    22  ARG22       0.2205
     40  NE        34.0110   29.8380   26.0750 N.pl3  22  ARG22      -0.0865
     41  CZ        34.5310   30.7450   25.2540 C.cat  22  ARG22       0.5346
     42  NH1       34.8970   30.4070   24.0240 N.pl3  22  ARG22       0.1354
     43  NH2       34.7010   31.9930   25.6710 N.pl3  22  ARG22       0.1354
     44  N         37.9060   25.8200   24.8820 N.am   23  ASN23      -0.1958
     45  CA        38.4440   25.6940   23.5280 C.3    23  ASN23       0.1819
     46  C         37.2760   25.8790   22.5540 C.2    23  ASN23       0.2622
     47  O         36.2660   25.1810   22.6400 O.2    23  ASN23      -0.2715
     48  CB        39.0980   24.3190   23.3470 C.3    23  ASN23       0.1195
     49  CG        39.7470   24.1550   21.9860 C.2    23  ASN23       0.2630
     50  OD1       39.0690   23.9160   20.9860 O.2    23  ASN23      -0.2716
     51  ND2       41.0680   24.2950   21.9400 N.am   23  ASN23      -0.0877
     52  N         37.4130   26.8290   21.6340 N.am   24  SER24      -0.1950
     53  CA        36.3480   27.1220   20.6810 C.3    24  SER24       0.1924
     54  C         35.8910   25.9400   19.8300 C.2    24  SER24       0.2314
     55  O         34.7700   25.9400   19.3230 O.2    24  SER24      -0.2863
     56  CB        36.7640   28.2840   19.7710 C.3    24  SER24       0.2116
     57  OG        37.9260   27.9660   19.0280 O.3    24  SER24      -0.2180
     58  N         34.7020   23.4820   26.5940 N.3    28  SER28      -0.1202
     59  CA        35.4820   23.8350   27.7800 C.3    28  SER28       0.2020
     60  C         36.2220   22.6260   28.3430 C.2    28  SER28       0.2618
     61  O         35.7400   21.4940   28.2630 O.2    28  SER28      -0.2717
     62  CB        34.5810   24.4490   28.8610 C.3    28  SER28       0.2103
     63  OG        33.6270   23.5180   29.3540 O.3    28  SER28      -0.2182
     64  N         37.4010   22.8710   28.9070 N.am   29  TRP29      -0.1975
     65  CA        38.2070   21.8020   29.4860 C.3    29  TRP29       0.1640
     66  C         37.4060   21.0360   30.5360 C.2    29  TRP29       0.2290
     67  O         37.4040   19.8040   30.5620 O.2    29  TRP29      -0.2864
     68  CB        39.4570   22.3780   30.1600 C.3    29  TRP29       0.0576
     69  CG        40.4030   23.1230   29.2590 C.ar   29  TRP29       0.0006
     70  CD1       40.2960   23.3110   27.9050 C.ar   29  TRP29       0.0946
     71  CD2       41.6200   23.7610   29.6590 C.ar   29  TRP29       0.0152
     72  NE1       41.3810   24.0280   27.4420 N.ar   29  TRP29      -0.2442
     73  CE2       42.2060   24.3160   28.4980 C.ar   29  TRP29       0.0810
     74  CE3       42.2740   23.9170   30.8900 C.ar   29  TRP29       0.0012
     75  CZ2       43.4210   25.0170   28.5340 C.ar   29  TRP29       0.0191
     76  CZ3       43.4800   24.6110   30.9250 C.ar   29  TRP29       0.0001
     77  CH2       44.0400   25.1530   29.7500 C.ar   29  TRP29       0.0015
     78  N         46.5120   22.3380   28.9210 N.3    63  GLU63      -0.1231
     79  CA        47.4200   23.4630   29.0940 C.3    63  GLU63       0.1699
     80  C         47.1010   24.4140   27.9490 C.2    63  GLU63       0.2593
     81  O         46.9910   23.9940   26.7970 O.2    63  GLU63      -0.2718
     82  CB        48.8820   23.0210   29.0320 C.3    63  GLU63       0.0402
     83  CG        49.8470   24.1780   29.2190 C.3    63  GLU63       0.1161
     84  CD        51.2960   23.7430   29.2390 C.2    63  GLU63       0.3649
     85  OE1       52.1150   24.4080   28.5720 O.co2  63  GLU63      -0.2457
     86  OE2       51.6180   22.7470   29.9240 O.co2  63  GLU63      -0.2457
     87  N         46.9360   25.6920   28.2620 N.am   64  SER64      -0.1938
     88  CA        46.5820   26.6580   27.2370 C.3    64  SER64       0.2055
     89  C         47.6900   26.9790   26.2510 C.2    64  SER64       0.2643
     90  O         48.8780   26.8970   26.5650 O.2    64  SER64      -0.2714
     91  CB        46.1130   27.9690   27.8740 C.3    64  SER64       0.2130
     92  OG        47.2150   28.7070   28.3810 O.3    64  SER64      -0.2179
     93  N         47.2730   27.3310   25.0430 N.am   65  PHE65      -0.1959
     94  CA        48.1910   27.7510   23.9980 C.3    65  PHE65       0.1771
     95  C         47.6730   29.1210   23.5940 C.2    65  PHE65       0.2620
     96  O         46.4950   29.2680   23.2740 O.2    65  PHE65      -0.2715
     97  CB        48.1430   26.8340   22.7800 C.3    65  PHE65       0.0574
     98  CG        49.0240   27.3040   21.6510 C.ar   65  PHE65      -0.0200
     99  CD1       50.3810   27.0030   21.6390 C.ar   65  PHE65      -0.0042
    100  CD2       48.5050   28.0980   20.6330 C.ar   65  PHE65      -0.0042
    101  CE1       51.2170   27.4900   20.6260 C.ar   65  PHE65      -0.0003
    102  CE2       49.3310   28.5910   19.6160 C.ar   65  PHE65      -0.0003
    103  CZ        50.6870   28.2850   19.6150 C.ar   65  PHE65      -0.0000
    104  N         48.5400   30.1250   23.6200 N.am   66  SER66      -0.1950
    105  CA        48.1280   31.4680   23.2410 C.3    66  SER66       0.1924
    106  C         49.2750   32.2490   22.6250 C.2    66  SER66       0.2314
    107  O         50.4260   32.1010   23.0300 O.2    66  SER66      -0.2863
    108  CB        47.6040   32.2250   24.4630 C.3    66  SER66       0.2116
    109  OG        47.1960   33.5350   24.1100 O.3    66  SER66      -0.2180
    110  N         48.7140   34.8520   28.4730 N.3    71  PHE71      -0.1241
    111  CA        47.7570   33.7530   28.5900 C.3    71  PHE71       0.1605
    112  C         48.2620   32.3970   28.1140 C.2    71  PHE71       0.2264
    113  O         47.4890   31.4370   28.0400 O.2    71  PHE71      -0.2867
    114  CB        46.4820   34.0940   27.8170 C.3    71  PHE71       0.0534
    115  CG        45.7130   35.2410   28.3980 C.ar   71  PHE71      -0.0203
    116  CD1       46.1620   36.5500   28.2450 C.ar   71  PHE71      -0.0042
    117  CD2       44.5510   35.0110   29.1230 C.ar   71  PHE71      -0.0042
    118  CE1       45.4580   37.6160   28.8080 C.ar   71  PHE71      -0.0003
    119  CE2       43.8420   36.0680   29.6890 C.ar   71  PHE71      -0.0003
    120  CZ        44.2990   37.3720   29.5310 C.ar   71  PHE71      -0.0000
@<TRIPOS>BOND
     1    57    56    1
     2    55    54    2
     3   103   102   ar
     4   103   101   ar
     5   102   100   ar
     6    56    53    1
     7    54    53    1
     8   101    99   ar
     9   100    98   ar
    10    53    52    1
    11    50    49    2
    12    52    46   am
    13    99    98   ar
    14    98    97    1
    15    51    49   am
    16    49    48    1
    17    46    47    2
    18    46    45    1
    19   106   107    2
    20   106   105    1
    21    97    94    1
    22   105   104    1
    23   105   108    1
    24    96    95    2
    25    48    45    1
    26    45    44    1
    27    95   104   am
    28    95    94    1
    29    94    93    1
    30    42    41    1
    31   109   108    1
    32    44    35   am
    33    36    35    2
    34    93    89   am
    35    41    43    1
    36    41    40    2
    37    35    34    1
    38    38    39    1
    39    38    37    1
    40    39    40    1
    41    89    90    2
    42    89    88    1
    43    58    59    1
    44    81    80    2
    45    37    34    1
    46    34    33    1
    47    88    91    1
    48    88    87    1
    49    72    70   ar
    50    72    73   ar
    51    31    29   ar
    52    31    32   ar
    53    59    60    1
    54    59    62    1
    55   114   115    1
    56   114   111    1
    57    91    92    1
    58    33    21   am
    59    70    69   ar
    60    80    87   am
    61    80    79    1
    62   113   112    2
    63    29    26   ar
    64   112   111    1
    65   116   115   ar
    66   116   118   ar
    67    61    60    2
    68    60    64   am
    69   115   117   ar
    70    32    30   ar
    71   110   111    1
    72    73    75   ar
    73    73    71   ar
    74    75    77   ar
    75    85    84   ar
    76   118   120   ar
    77    62    63    1
    78    64    65    1
    79    78    79    1
    80    82    79    1
    81    82    83    1
    82    21    22    2
    83    21    20    1
    84   117   119   ar
    85    83    84    1
    86    84    86   ar
    87    69    71   ar
    88    69    68    1
    89    26    28   ar
    90    26    24   ar
    91    65    68    1
    92    65    66    1
    93   120   119   ar
    94    71    74   ar
    95    77    76   ar
    96    30    28   ar
    97    23    20    1
    98    23    24    1
    99    20    19    1
   100    28    27   ar
   101    24    25   ar
   102    66    67    2
   103    74    76   ar
   104    16    15    2
   105    19    15   am
   106    25    27   ar
   107    15    14    1
   108    12    11    1
   109    10    11   ar
   110    10     8   ar
   111    11     9   ar
   112     8     6   ar
   113     9     7   ar
   114    14    17    1
   115    14    13    1
   116     6     7   ar
   117     6     5    1
   118    18    17    1
   119     5     2    1
   120    13     3   am
   121     3     2    1
   122     3     4    2
   123     2     1    1
