@<TRIPOS>MOLECULE
tmp/2cjyB00.pdb
 140 144 0 0 0
SMALL
GASTEIGER

@<TRIPOS>ATOM
      1  N         39.9560   32.5210   36.3020 N.3    30  TYR30      -0.1227
      2  CA        39.2950   32.4590   35.0060 C.3    30  TYR30       0.1736
      3  C         38.9820   30.9840   34.7940 C.2    30  TYR30       0.2596
      4  O         39.5610   30.1200   35.4550 O.2    30  TYR30      -0.2718
      5  CB        40.2430   32.8560   33.8750 C.3    30  TYR30       0.0548
      6  CG        40.4840   34.3280   33.6540 C.ar   30  TYR30      -0.0200
      7  CD1       41.7580   34.8690   33.8230 C.ar   30  TYR30      -0.0009
      8  CD2       39.4720   35.1600   33.1730 C.ar   30  TYR30      -0.0009
      9  CE1       42.0240   36.1990   33.5070 C.ar   30  TYR30       0.0417
     10  CE2       39.7280   36.4950   32.8560 C.ar   30  TYR30       0.0417
     11  CZ        41.0070   37.0030   33.0240 C.ar   30  TYR30       0.1957
     12  OH        41.2790   38.3130   32.6910 O.3    30  TYR30      -0.2866
     13  N         38.0790   30.7030   33.8620 N.am   31  SER31      -0.1938
     14  CA        37.7340   29.3290   33.5130 C.3    31  SER31       0.2055
     15  C         37.9590   29.2420   32.0050 C.2    31  SER31       0.2643
     16  O         37.5620   30.1440   31.2660 O.2    31  SER31      -0.2714
     17  CB        36.2770   29.0180   33.8460 C.3    31  SER31       0.2130
     18  OG        35.9900   27.6590   33.5550 O.3    31  SER31      -0.2179
     19  N         38.5910   28.1610   31.5580 N.am   32  TRP32      -0.1959
     20  CA        38.9130   27.9840   30.1450 C.3    32  TRP32       0.1771
     21  C         37.9270   27.2090   29.2830 C.2    32  TRP32       0.2620
     22  O         37.3790   26.1910   29.6940 O.2    32  TRP32      -0.2715
     23  CB        40.2900   27.3390   30.0110 C.3    32  TRP32       0.0590
     24  CG        41.3950   28.2330   30.4520 C.ar   32  TRP32       0.0006
     25  CD1       41.9640   28.2930   31.6910 C.ar   32  TRP32       0.0946
     26  CD2       42.0520   29.2240   29.6580 C.ar   32  TRP32       0.0152
     27  NE1       42.9400   29.2630   31.7160 N.ar   32  TRP32      -0.2442
     28  CE2       43.0130   29.8490   30.4800 C.ar   32  TRP32       0.0810
     29  CE3       41.9200   29.6460   28.3290 C.ar   32  TRP32       0.0012
     30  CZ2       43.8410   30.8750   30.0170 C.ar   32  TRP32       0.0191
     31  CZ3       42.7430   30.6650   27.8680 C.ar   32  TRP32       0.0001
     32  CH2       43.6920   31.2680   28.7110 C.ar   32  TRP32       0.0015
     33  N         37.7440   27.7010   28.0620 N.am   33  ARG33      -0.1963
     34  CA        36.8370   27.1010   27.0930 C.3    33  ARG33       0.1729
     35  C         37.4920   27.0410   25.7180 C.2    33  ARG33       0.2616
     36  O         38.0540   28.0280   25.2500 O.2    33  ARG33      -0.2715
     37  CB        35.5480   27.9310   27.0190 C.3    33  ARG33       0.0348
     38  CG        34.7060   27.7310   25.7590 C.3    33  ARG33       0.0492
     39  CD        33.3670   28.4590   25.8780 C.3    33  ARG33       0.2205
     40  NE        33.5380   29.8560   26.2710 N.pl3  33  ARG33      -0.0865
     41  CZ        34.0070   30.8110   25.4730 C.cat  33  ARG33       0.5346
     42  NH1       34.3470   30.5280   24.2230 N.pl3  33  ARG33       0.1354
     43  NH2       34.1590   32.0480   25.9360 N.pl3  33  ARG33       0.1354
     44  N         37.4340   25.8760   25.0830 N.am   34  ASN34      -0.1958
     45  CA        37.9930   25.7250   23.7440 C.3    34  ASN34       0.1819
     46  C         36.8520   26.0770   22.7920 C.2    34  ASN34       0.2622
     47  O         35.7930   25.4550   22.8280 O.2    34  ASN34      -0.2715
     48  CB        38.4720   24.2890   23.5290 C.3    34  ASN34       0.1195
     49  CG        39.1370   24.0910   22.1810 C.2    34  ASN34       0.2630
     50  OD1       38.4660   24.0110   21.1530 O.2    34  ASN34      -0.2716
     51  ND2       40.4660   24.0240   22.1790 N.am   34  ASN34      -0.0877
     52  N         37.0640   27.0900   21.9580 N.am   35  SER35      -0.1936
     53  CA        36.0320   27.5460   21.0330 C.3    35  SER35       0.2055
     54  C         35.5290   26.4660   20.0850 C.2    35  SER35       0.2642
     55  O         34.4780   26.6180   19.4610 O.2    35  SER35      -0.2714
     56  CB        36.5490   28.7400   20.2270 C.3    35  SER35       0.2130
     57  OG        37.7150   28.3950   19.5020 O.3    35  SER35      -0.2179
     58  N         36.2760   25.3730   19.9930 N.am   36  LYS36      -0.1977
     59  CA        35.9280   24.2680   19.1120 C.3    36  LYS36       0.1596
     60  C         35.4100   23.0250   19.8320 C.2    36  LYS36       0.2287
     61  O         34.3930   22.4550   19.4370 O.2    36  LYS36      -0.2864
     62  CB        37.1530   23.8990   18.2700 C.3    36  LYS36       0.0298
     63  CG        37.1870   22.4670   17.7770 C.3    36  LYS36       0.0038
     64  CD        38.5630   22.1350   17.2220 C.3    36  LYS36       0.0206
     65  CE        38.7240   20.6500   16.9630 C.3    36  LYS36       0.1093
     66  NZ        40.1150   20.3310   16.5340 N.3    36  LYS36      -0.1314
     67  N         34.2290   23.6700   26.8110 N.3    39  SER39      -0.1202
     68  CA        35.0170   23.9660   28.0060 C.3    39  SER39       0.2020
     69  C         35.7170   22.7280   28.5490 C.2    39  SER39       0.2618
     70  O         35.1990   21.6120   28.4500 O.2    39  SER39      -0.2717
     71  CB        34.1300   24.5880   29.0990 C.3    39  SER39       0.2103
     72  OG        33.1900   23.6580   29.6150 O.3    39  SER39      -0.2182
     73  N         36.9020   22.9300   29.1160 N.am   40  TRP40      -0.1975
     74  CA        37.6760   21.8280   29.6740 C.3    40  TRP40       0.1640
     75  C         36.8730   21.0900   30.7320 C.2    40  TRP40       0.2290
     76  O         36.8700   19.8570   30.7790 O.2    40  TRP40      -0.2864
     77  CB        38.9600   22.3420   30.3240 C.3    40  TRP40       0.0576
     78  CG        39.8680   23.1030   29.4160 C.ar   40  TRP40       0.0006
     79  CD1       39.7770   23.2230   28.0570 C.ar   40  TRP40       0.0946
     80  CD2       41.0420   23.8210   29.8050 C.ar   40  TRP40       0.0152
     81  NE1       40.8260   23.9730   27.5770 N.ar   40  TRP40      -0.2442
     82  CE2       41.6180   24.3510   28.6300 C.ar   40  TRP40       0.0810
     83  CE3       41.6650   24.0660   31.0360 C.ar   40  TRP40       0.0012
     84  CZ2       42.7930   25.1150   28.6500 C.ar   40  TRP40       0.0191
     85  CZ3       42.8310   24.8220   31.0580 C.ar   40  TRP40       0.0001
     86  CH2       43.3840   25.3380   29.8700 C.ar   40  TRP40       0.0015
     87  N         46.0020   22.5380   29.1460 N.3    74  GLU74      -0.1231
     88  CA        46.8920   23.6830   29.3040 C.3    74  GLU74       0.1699
     89  C         46.5550   24.6370   28.1650 C.2    74  GLU74       0.2593
     90  O         46.4940   24.2350   27.0030 O.2    74  GLU74      -0.2718
     91  CB        48.3650   23.2670   29.2350 C.3    74  GLU74       0.0402
     92  CG        49.3240   24.4390   29.4020 C.3    74  GLU74       0.1161
     93  CD        50.7780   24.0140   29.4850 C.2    74  GLU74       0.3649
     94  OE1       51.6310   24.7400   28.9380 O.co2  74  GLU74      -0.2457
     95  OE2       51.0710   22.9680   30.1030 O.co2  74  GLU74      -0.2457
     96  N         46.3280   25.9020   28.4970 N.am   75  SER75      -0.1938
     97  CA        45.9500   26.8780   27.4860 C.3    75  SER75       0.2055
     98  C         47.0300   27.1900   26.4650 C.2    75  SER75       0.2643
     99  O         48.2250   27.0610   26.7310 O.2    75  SER75      -0.2714
    100  CB        45.5110   28.1890   28.1460 C.3    75  SER75       0.2130
    101  OG        46.6270   28.8860   28.6830 O.3    75  SER75      -0.2179
    102  N         46.5770   27.5880   25.2830 N.am   76  PHE76      -0.1959
    103  CA        47.4500   28.0030   24.1960 C.3    76  PHE76       0.1771
    104  C         46.9210   29.3760   23.8110 C.2    76  PHE76       0.2620
    105  O         45.7270   29.5340   23.5510 O.2    76  PHE76      -0.2715
    106  CB        47.3360   27.0740   22.9870 C.3    76  PHE76       0.0574
    107  CG        48.1540   27.5270   21.8080 C.ar   76  PHE76      -0.0200
    108  CD1       49.5070   27.2150   21.7190 C.ar   76  PHE76      -0.0042
    109  CD2       47.5810   28.3090   20.8100 C.ar   76  PHE76      -0.0042
    110  CE1       50.2800   27.6790   20.6520 C.ar   76  PHE76      -0.0003
    111  CE2       48.3450   28.7780   19.7410 C.ar   76  PHE76      -0.0003
    112  CZ        49.6960   28.4620   19.6630 C.ar   76  PHE76      -0.0000
    113  N         47.7970   30.3710   23.7840 N.am   77  SER77      -0.1936
    114  CA        47.3740   31.7160   23.4250 C.3    77  SER77       0.2055
    115  C         48.5040   32.4900   22.7710 C.2    77  SER77       0.2643
    116  O         49.6660   32.3440   23.1450 O.2    77  SER77      -0.2714
    117  CB        46.8980   32.4700   24.6700 C.3    77  SER77       0.2130
    118  OG        46.4770   33.7840   24.3430 O.3    77  SER77      -0.2179
    119  N         48.1580   33.3060   21.7830 N.am   78  PHE78      -0.1973
    120  CA        49.1520   34.1260   21.1060 C.3    78  PHE78       0.1639
    121  C         49.5640   35.2480   22.0560 C.2    78  PHE78       0.2290
    122  O         50.6080   35.8770   21.8820 O.2    78  PHE78      -0.2864
    123  CB        48.5690   34.6880   19.8070 C.3    78  PHE78       0.0560
    124  CG        48.3690   33.6480   18.7370 C.ar   78  PHE78      -0.0200
    125  CD1       47.3000   33.7350   17.8530 C.ar   78  PHE78      -0.0042
    126  CD2       49.2540   32.5830   18.6130 C.ar   78  PHE78      -0.0042
    127  CE1       47.1130   32.7750   16.8610 C.ar   78  PHE78      -0.0003
    128  CE2       49.0780   31.6170   17.6260 C.ar   78  PHE78      -0.0003
    129  CZ        48.0020   31.7140   16.7480 C.ar   78  PHE78      -0.0000
    130  N         48.0740   35.0340   28.6490 N.3    82  PHE82      -0.1241
    131  CA        47.1070   33.9500   28.7820 C.3    82  PHE82       0.1605
    132  C         47.6040   32.5990   28.2850 C.2    82  PHE82       0.2264
    133  O         46.8290   31.6470   28.1960 O.2    82  PHE82      -0.2867
    134  CB        45.8210   34.3070   28.0320 C.3    82  PHE82       0.0534
    135  CG        45.0470   35.4300   28.6570 C.ar   82  PHE82      -0.0203
    136  CD1       45.5020   36.7420   28.5760 C.ar   82  PHE82      -0.0042
    137  CD2       43.8690   35.1710   29.3460 C.ar   82  PHE82      -0.0042
    138  CE1       44.7910   37.7830   29.1770 C.ar   82  PHE82      -0.0003
    139  CE2       43.1520   36.2010   29.9500 C.ar   82  PHE82      -0.0003
    140  CZ        43.6160   37.5100   29.8650 C.ar   82  PHE82      -0.0000
@<TRIPOS>BOND
     1    66    65    1
     2   129   127   ar
     3   129   128   ar
     4   127   125   ar
     5    65    64    1
     6    64    63    1
     7   128   126   ar
     8    63    62    1
     9   125   124   ar
    10    62    59    1
    11   126   124   ar
    12   124   123    1
    13    59    60    1
    14    59    58    1
    15    61    60    2
    16    55    54    2
    17    57    56    1
    18   112   111   ar
    19   112   110   ar
    20   111   109   ar
    21   123   120    1
    22    58    54   am
    23    54    53    1
    24    56    53    1
    25   110   108   ar
    26   109   107   ar
    27    53    52    1
    28   120   119    1
    29   120   121    1
    30    50    49    2
    31   108   107   ar
    32   119   115   am
    33   107   106    1
    34   122   121    2
    35    52    46   am
    36    51    49   am
    37    49    48    1
    38   115   116    2
    39   115   114    1
    40    46    47    2
    41    46    45    1
    42   106   103    1
    43   114   113    1
    44   114   117    1
    45    48    45    1
    46   105   104    2
    47    45    44    1
    48   113   104   am
    49   104   103    1
    50   103   102    1
    51    42    41    1
    52   118   117    1
    53    44    35   am
    54    36    35    2
    55   102    98   am
    56    41    43    1
    57    41    40    2
    58    35    34    1
    59    38    39    1
    60    38    37    1
    61    39    40    1
    62    98    99    2
    63    98    97    1
    64    67    68    1
    65    90    89    2
    66    37    34    1
    67    34    33    1
    68    97   100    1
    69    97    96    1
    70    81    79   ar
    71    81    82   ar
    72    31    29   ar
    73    31    32   ar
    74    68    69    1
    75    68    71    1
    76   134   135    1
    77   134   131    1
    78    79    78   ar
    79    33    21   am
    80   100   101    1
    81    89    96   am
    82    89    88    1
    83   133   132    2
    84   132   131    1
    85    29    26   ar
    86    70    69    2
    87    69    73   am
    88   136   135   ar
    89   136   138   ar
    90    82    84   ar
    91    82    80   ar
    92   130   131    1
    93    84    86   ar
    94   135   137   ar
    95    32    30   ar
    96    94    93   ar
    97    71    72    1
    98    73    74    1
    99    87    88    1
   100   138   140   ar
   101    91    88    1
   102    91    92    1
   103    21    22    2
   104    21    20    1
   105   137   139   ar
   106    92    93    1
   107    78    80   ar
   108    78    77    1
   109    93    95   ar
   110    26    24   ar
   111    26    28   ar
   112    74    77    1
   113    74    75    1
   114    80    83   ar
   115   140   139   ar
   116    86    85   ar
   117    23    20    1
   118    23    24    1
   119    30    28   ar
   120    20    19    1
   121    24    25   ar
   122    28    27   ar
   123    75    76    2
   124    83    85   ar
   125    16    15    2
   126    19    15   am
   127    25    27   ar
   128    15    14    1
   129    12    11    1
   130    10    11   ar
   131    10     8   ar
   132    11     9   ar
   133     8     6   ar
   134     9     7   ar
   135    14    17    1
   136    14    13    1
   137    18    17    1
   138     6     7   ar
   139     6     5    1
   140    13     3   am
   141     5     2    1
   142     3     2    1
   143     3     4    2
   144     2     1    1
