@<TRIPOS>MOLECULE
tmp/2cjyA00.pdb
 91 87 0 0 0
SMALL
GASTEIGER

@<TRIPOS>ATOM
      1  N         31.4790   38.9640   25.0510 N.3    34  THR34      -0.1203
      2  CA        31.7750   38.2400   23.8190 C.3    34  THR34       0.1994
      3  C         30.9190   36.9910   23.6820 C.2    34  THR34       0.2619
      4  O         30.3820   36.4810   24.6690 O.2    34  THR34      -0.2717
      5  CB        33.2410   37.7840   23.7690 C.3    34  THR34       0.1784
      6  OG1       33.5010   36.9100   24.8760 O.3    34  THR34      -0.2211
      7  CG2       34.1780   38.9770   23.8310 C.3    34  THR34       0.0376
      8  N         30.8020   36.4990   22.4530 N.am   35  SER35      -0.1937
      9  CA        30.0370   35.2860   22.1890 C.3    35  SER35       0.2055
     10  C         30.8660   34.1340   22.7390 C.2    35  SER35       0.2643
     11  O         32.0950   34.1530   22.6500 O.2    35  SER35      -0.2714
     12  CB        29.8180   35.1100   20.6870 C.3    35  SER35       0.2130
     13  OG        31.0530   34.9950   20.0030 O.3    35  SER35      -0.2179
     14  N         30.2030   33.1340   23.3090 N.am   36  ARG36      -0.1963
     15  CA        30.9110   32.0010   23.8950 C.3    36  ARG36       0.1729
     16  C         30.9930   30.7940   22.9640 C.2    36  ARG36       0.2616
     17  O         30.3480   29.7690   23.1850 O.2    36  ARG36      -0.2715
     18  CB        30.2530   31.6240   25.2280 C.3    36  ARG36       0.0348
     19  CG        30.2610   32.7780   26.2380 C.3    36  ARG36       0.0492
     20  CD        29.6510   32.4060   27.5880 C.3    36  ARG36       0.2205
     21  NE        30.3050   31.2360   28.1650 N.pl3  36  ARG36      -0.0865
     22  CZ        29.8220   30.0010   28.0910 C.cat  36  ARG36       0.5346
     23  NH1       28.6680   29.7730   27.4750 N.pl3  36  ARG36       0.1354
     24  NH2       30.5100   28.9890   28.6040 N.pl3  36  ARG36       0.1354
     25  N         31.8090   30.9300   21.9240 N.am   37  SER37      -0.1950
     26  CA        31.9970   29.8710   20.9440 C.3    37  SER37       0.1924
     27  C         32.3690   28.5590   21.6180 C.2    37  SER37       0.2314
     28  O         33.2470   28.5180   22.4820 O.2    37  SER37      -0.2863
     29  CB        33.0910   30.2650   19.9510 C.3    37  SER37       0.2116
     30  OG        32.7790   31.4950   19.3230 O.3    37  SER37      -0.2180
     31  N         27.9320   30.2190   31.0180 N.3    92  SER92      -0.1202
     32  CA        27.9370   31.6310   30.6500 C.3    92  SER92       0.2020
     33  C         29.1720   32.3610   31.1520 C.2    92  SER92       0.2619
     34  O         30.1090   31.7510   31.6600 O.2    92  SER92      -0.2717
     35  CB        26.6890   32.3090   31.2290 C.3    92  SER92       0.2103
     36  OG        26.5530   33.6400   30.7620 O.3    92  SER92      -0.2182
     37  N         29.1670   33.6800   30.9810 N.am   93  HIS93      -0.1961
     38  CA        30.2480   34.5180   31.4700 C.3    93  HIS93       0.1787
     39  C         29.9490   34.6370   32.9550 C.2    93  HIS93       0.2621
     40  O         28.8150   34.4110   33.3810 O.2    93  HIS93      -0.2715
     41  CB        30.1820   35.9130   30.8400 C.3    93  HIS93       0.0785
     42  CG        30.7150   35.9780   29.4440 C.ar   93  HIS93       0.0821
     43  ND1       32.0580   35.8700   29.1540 N.ar   93  HIS93      -0.2267
     44  CD2       30.0860   36.1500   28.2570 C.ar   93  HIS93       0.1154
     45  CE1       32.2330   35.9710   27.8480 C.ar   93  HIS93       0.1986
     46  NE2       31.0520   36.1410   27.2810 N.ar   93  HIS93      -0.2212
     47  N         30.9520   34.9970   33.7430 N.am   94  GLY94      -0.1940
     48  CA        30.7170   35.1470   35.1660 C.3    94  GLY94       0.2014
     49  C         31.8980   35.7170   35.9160 C.2    94  GLY94       0.2638
     50  O         32.9680   35.9310   35.3500 O.2    94  GLY94      -0.2714
     51  N         31.6720   35.9900   37.1950 N.am   95  GLU95      -0.1977
     52  CA        32.6920   36.4970   38.0990 C.3    95  GLU95       0.1602
     53  C         32.3750   35.7990   39.4170 C.2    95  GLU95       0.2287
     54  O         31.4090   35.0430   39.4990 O.2    95  GLU95      -0.2864
     55  CB        32.5850   38.0140   38.2620 C.3    95  GLU95       0.0415
     56  CG        32.8580   38.8080   36.9890 C.3    95  GLU95       0.1163
     57  CD        34.2000   38.4820   36.3610 C.2    95  GLU95       0.3649
     58  OE1       35.0420   37.8450   37.0300 O.co2  95  GLU95      -0.2457
     59  OE2       34.4180   38.8760   35.1950 O.co2  95  GLU95      -0.2457
     60  N         29.8560   26.4470   34.7520 N.3   133  GLN133     -0.1231
     61  CA        30.9530   26.6950   33.8270 C.3   133  GLN133      0.1698
     62  C         30.9190   28.1960   33.5510 C.2   133  GLN133      0.2592
     63  O         30.1290   28.6730   32.7350 O.2   133  GLN133     -0.2718
     64  CB        30.7590   25.9090   32.5250 C.3   133  GLN133      0.0381
     65  CG        31.7170   26.3020   31.3900 C.3   133  GLN133      0.0905
     66  CD        33.1690   26.3660   31.8360 C.2   133  GLN133      0.2608
     67  OE1       33.6760   25.4490   32.4760 O.2   133  GLN133     -0.2717
     68  NE2       33.8470   27.4540   31.4910 N.am  133  GLN133     -0.0878
     69  N         31.7660   28.9300   34.2650 N.am  134  ALA134     -0.1966
     70  CA        31.8610   30.3790   34.1390 C.3   134  ALA134      0.1728
     71  C         33.0550   30.8380   34.9610 C.2   134  ALA134      0.2616
     72  O         33.4910   30.1370   35.8730 O.2   134  ALA134     -0.2715
     73  CB        30.5840   31.0390   34.6640 C.3   134  ALA134      0.0334
     74  N         33.5890   32.0100   34.6400 N.am  135  CYS135     -0.1968
     75  CA        34.7240   32.5280   35.3880 C.3   135  CYS135      0.1712
     76  C         34.3180   32.8980   36.8030 C.2   135  CYS135      0.2296
     77  O         33.1460   33.1620   37.0720 O.2   135  CYS135     -0.2864
     78  CB        35.3040   33.7590   34.6990 C.3   135  CYS135      0.0983
     79  SG        36.2330   33.3620   33.2200 S.3   135  CYS135     -0.0798
     80  N         36.5540   35.0430   38.4400 N.3   137  GLY137     -0.1225
     81  CA        37.5220   36.1000   38.6550 C.3   137  GLY137      0.1811
     82  C         38.4390   36.2290   37.4540 C.2   137  GLY137      0.2280
     83  O         38.1120   35.7590   36.3650 O.2   137  GLY137     -0.2866
     84  N         45.0030   33.7910   36.8630 N.3   140  LEU140     -0.1245
     85  CA        45.4660   32.7350   35.9730 C.3   140  LEU140      0.1561
     86  C         46.4210   31.8430   36.7560 C.2   140  LEU140      0.2260
     87  O         47.2250   32.3310   37.5490 O.2   140  LEU140     -0.2867
     88  CB        46.1830   33.3380   34.7600 C.3   140  LEU140      0.0270
     89  CG        45.2920   34.0720   33.7500 C.3   140  LEU140      0.0019
     90  CD1       46.1420   34.9000   32.8010 C.3   140  LEU140      0.0001
     91  CD2       44.4600   33.0570   32.9820 C.3   140  LEU140      0.0001
@<TRIPOS>BOND
     1    30    29    1
     2    29    26    1
     3    13    12    1
     4    12     9    1
     5    26    27    1
     6    26    25    1
     7    27    28    2
     8    25    16   am
     9     9     8    1
    10     9    10    1
    11     8     3   am
    12    11    10    2
    13    10    14   am
    14    16    17    2
    15    16    15    1
    16    14    15    1
    17     3     2    1
    18     3     4    2
    19     5     2    1
    20     5     7    1
    21     5     6    1
    22     2     1    1
    23    15    18    1
    24    18    19    1
    25    19    20    1
    26    46    45   ar
    27    46    44   ar
    28    23    22    1
    29    20    21    1
    30    45    43   ar
    31    22    21    2
    32    22    24    1
    33    44    42   ar
    34    43    42   ar
    35    42    41    1
    36    32    31    1
    37    32    33    1
    38    32    35    1
    39    36    35    1
    40    41    38    1
    41    37    33   am
    42    37    38    1
    43    33    34    2
    44    65    66    1
    45    65    64    1
    46    38    39    1
    47    68    66   am
    48    66    67    2
    49    64    61    1
    50    63    62    2
    51    90    89    1
    52    39    40    2
    53    39    47   am
    54    91    89    1
    55    79    78    1
    56    62    61    1
    57    62    69   am
    58    47    48    1
    59    89    88    1
    60    61    60    1
    61    70    69    1
    62    70    73    1
    63    70    71    1
    64    74    71   am
    65    74    75    1
    66    78    75    1
    67    88    85    1
    68    71    72    2
    69    48    49    1
    70    59    57   ar
    71    50    49    2
    72    75    76    1
    73    49    51   am
    74    85    86    1
    75    85    84    1
    76    57    56    1
    77    57    58   ar
    78    83    82    2
    79    86    87    2
    80    76    77    2
    81    56    55    1
    82    51    52    1
    83    82    81    1
    84    52    55    1
    85    52    53    1
    86    80    81    1
    87    53    54    2
