@<TRIPOS>MOLECULE
tmp/2cjzA00.pdb
 89 85 0 0 0
SMALL
GASTEIGER

@<TRIPOS>ATOM
      1  N          8.5380  -17.3320   -6.9480 N.3    54  TYR54      -0.1241
      2  CA         9.1690  -18.6250   -7.2060 C.3    54  TYR54       0.1605
      3  C         10.2190  -18.8980   -6.1250 C.2    54  TYR54       0.2264
      4  O         11.1520  -18.1150   -5.9360 O.2    54  TYR54      -0.2867
      5  CB         9.7940  -18.6400   -8.6050 C.3    54  TYR54       0.0534
      6  CG         8.8170  -18.2370   -9.7040 C.ar   54  TYR54      -0.0201
      7  CD1        7.8300  -19.1150  -10.1420 C.ar   54  TYR54      -0.0009
      8  CD2        8.8740  -16.9750  -10.2890 C.ar   54  TYR54      -0.0009
      9  CE1        6.9390  -18.7520  -11.1350 C.ar   54  TYR54       0.0417
     10  CE2        7.9820  -16.6040  -11.2860 C.ar   54  TYR54       0.0417
     11  CZ         7.0150  -17.4980  -11.7030 C.ar   54  TYR54       0.1957
     12  OH         6.1230  -17.1350  -12.6940 O.3    54  TYR54      -0.2866
     13  N         12.7400  -20.8360   -5.8450 N.3    56  THR56      -0.1203
     14  CA        14.1360  -21.0470   -6.2500 C.3    56  THR56       0.1994
     15  C         14.7500  -19.8650   -7.0070 C.2    56  THR56       0.2617
     16  O         15.9080  -19.9300   -7.4330 O.2    56  THR56      -0.2717
     17  CB        14.2510  -22.3070   -7.1260 C.3    56  THR56       0.1784
     18  OG1       13.4330  -22.1540   -8.2910 O.3    56  THR56      -0.2211
     19  CG2       13.8010  -23.5330   -6.3500 C.3    56  THR56       0.0376
     20  N         13.9770  -18.7930   -7.1900 N.am   57  ILE57      -0.1979
     21  CA        14.4750  -17.5990   -7.8570 C.3    57  ILE57       0.1595
     22  C         14.4900  -16.4830   -6.8180 C.2    57  ILE57       0.2287
     23  O         13.4610  -15.8740   -6.5110 O.2    57  ILE57      -0.2864
     24  CB        13.6370  -17.2260   -9.0970 C.3    57  ILE57       0.0276
     25  CG1       13.6340  -18.3930  -10.1000 C.3    57  ILE57       0.0022
     26  CG2       14.1870  -15.9640   -9.7570 C.3    57  ILE57       0.0022
     27  CD1       12.8210  -18.1410  -11.3530 C.3    57  ILE57       0.0001
     28  N          9.3340   -8.4420  -14.8520 N.3   211  SER211     -0.1202
     29  CA         8.5020   -9.3980  -15.5440 C.3   211  SER211      0.2020
     30  C          8.1880  -10.4290  -14.4560 C.2   211  SER211      0.2619
     31  O          8.6860  -10.3090  -13.3250 O.2   211  SER211     -0.2717
     32  CB         9.2510  -10.0150  -16.7300 C.3   211  SER211      0.2103
     33  OG        10.4350  -10.6690  -16.3140 O.3   211  SER211     -0.2182
     34  N          7.4230  -11.4520  -14.7780 N.am  212  SER212     -0.1937
     35  CA         6.9640  -12.3940  -13.7530 C.3   212  SER212      0.2055
     36  C          8.0480  -12.7920  -12.7330 C.2   212  SER212      0.2643
     37  O          7.9120  -12.5030  -11.5480 O.2   212  SER212     -0.2714
     38  CB         6.3600  -13.6360  -14.3890 C.3   212  SER212      0.2130
     39  OG         5.7400  -14.4390  -13.3990 O.3   212  SER212     -0.2179
     40  N          9.1170  -13.4400  -13.1900 N.am  213  ALA213     -0.1963
     41  CA        10.2270  -13.8260  -12.2960 C.3   213  ALA213      0.1728
     42  C         11.2790  -12.7160  -12.1700 C.2   213  ALA213      0.2617
     43  O         12.0660  -12.7150  -11.2260 O.2   213  ALA213     -0.2715
     44  CB        10.8780  -15.1150  -12.7780 C.3   213  ALA213      0.0334
     45  N         11.2810  -11.7890  -13.1260 N.am  214  GLY214     -0.1940
     46  CA        12.2090  -10.6760  -13.1560 C.3   214  GLY214      0.2014
     47  C         13.6230  -11.0620  -13.5630 C.2   214  GLY214      0.2639
     48  O         14.5830  -10.4200  -13.1290 O.2   214  GLY214     -0.2714
     49  N         13.7570  -12.0990  -14.3950 N.am  215  ILE215     -0.1963
     50  CA        15.0750  -12.5390  -14.8830 C.3   215  ILE215      0.1727
     51  C         15.1750  -12.7290  -16.4080 C.2   215  ILE215      0.2617
     52  O         16.1570  -12.3180  -17.0020 O.2   215  ILE215     -0.2715
     53  CB        15.5930  -13.8140  -14.1420 C.3   215  ILE215      0.0290
     54  CG1       14.6470  -15.0090  -14.2850 C.3   215  ILE215      0.0022
     55  CG2       15.8430  -13.4840  -12.6630 C.3   215  ILE215      0.0023
     56  CD1       15.1860  -16.3070  -13.6480 C.3   215  ILE215      0.0001
     57  N         14.1840  -13.3620  -17.0330 N.am  216  GLY216     -0.1940
     58  CA        14.2770  -13.7070  -18.4630 C.3   216  GLY216      0.2014
     59  C         14.0790  -12.5130  -19.3770 C.2   216  GLY216      0.2638
     60  O         15.0340  -11.9870  -19.9610 O.2   216  GLY216     -0.2714
     61  N         12.8310  -12.0680  -19.4780 N.am  217  ARG217     -0.1977
     62  CA        12.4760  -10.9080  -20.2980 C.3   217  ARG217      0.1597
     63  C         13.0830   -9.6210  -19.7410 C.2   217  ARG217      0.2287
     64  O         13.4890   -8.7360  -20.4920 O.2   217  ARG217     -0.2864
     65  CB        10.9480  -10.7940  -20.4180 C.3   217  ARG217      0.0334
     66  CG        10.3150  -11.9810  -21.1150 C.3   217  ARG217      0.0492
     67  CD         8.8190  -12.0380  -20.8920 C.3   217  ARG217      0.2205
     68  NE         8.5020  -12.5130  -19.5510 N.pl3 217  ARG217     -0.0865
     69  CZ         7.2720  -12.7150  -19.0950 C.cat 217  ARG217      0.5346
     70  NH1        6.2090  -12.4740  -19.8580 N.pl3 217  ARG217      0.1354
     71  NH2        7.1080  -13.1570  -17.8570 N.pl3 217  ARG217      0.1354
     72  N         17.1480  -16.0570  -19.5100 N.3   255  GLN255     -0.1245
     73  CA        16.8970  -17.4410  -19.0920 C.3   255  GLN255      0.1566
     74  C         17.1360  -18.5050  -20.1450 C.2   255  GLN255      0.2260
     75  O         17.5530  -19.6150  -19.8110 O.2   255  GLN255     -0.2867
     76  CB        15.4620  -17.5910  -18.5650 C.3   255  GLN255      0.0367
     77  CG        15.3550  -17.3840  -17.0780 C.3   255  GLN255      0.0905
     78  CD        16.1240  -18.4390  -16.3090 C.2   255  GLN255      0.2608
     79  OE1       17.2350  -18.1900  -15.8330 O.2   255  GLN255     -0.2717
     80  NE2       15.5490  -19.6290  -16.2000 N.am  255  GLN255     -0.0878
     81  N         16.0870  -16.4170  -25.9950 N.3   259  GLN259     -0.1245
     82  CA        16.1840  -15.0290  -25.5240 C.3   259  GLN259      0.1566
     83  C         17.5540  -14.4350  -25.8460 C.2   259  GLN259      0.2260
     84  O         17.6560  -13.2980  -26.3030 O.2   259  GLN259     -0.2867
     85  CB        15.9200  -14.9410  -24.0190 C.3   259  GLN259      0.0367
     86  CG        14.4470  -15.0430  -23.6500 C.3   259  GLN259      0.0905
     87  CD        14.2170  -15.2450  -22.1670 C.2   259  GLN259      0.2608
     88  OE1       15.1600  -15.3350  -21.3830 O.2   259  GLN259     -0.2717
     89  NE2       12.9510  -15.3210  -21.7760 N.am  259  GLN259     -0.0878
@<TRIPOS>BOND
     1    84    83    2
     2    81    82    1
     3    83    82    1
     4    82    85    1
     5    85    86    1
     6    86    87    1
     7    87    89   am
     8    87    88    2
     9    66    67    1
    10    66    65    1
    11    67    68    1
    12    64    63    2
    13    65    62    1
    14    62    63    1
    15    62    61    1
    16    74    75    2
    17    74    73    1
    18    60    59    2
    19    70    69    1
    20    68    69    2
    21    72    73    1
    22    61    59   am
    23    59    58    1
    24    69    71    1
    25    73    76    1
    26    76    77    1
    27    58    57    1
    28    77    78    1
    29    57    51   am
    30    52    51    2
    31    32    33    1
    32    32    29    1
    33    51    50    1
    34    78    80   am
    35    78    79    2
    36    29    28    1
    37    29    30    1
    38    50    49    1
    39    50    53    1
    40    34    30   am
    41    34    35    1
    42    30    31    2
    43    49    47   am
    44    38    35    1
    45    38    39    1
    46    54    53    1
    47    54    56    1
    48    53    55    1
    49    35    36    1
    50    47    46    1
    51    47    48    2
    52    40    36   am
    53    40    41    1
    54    46    45    1
    55    45    42   am
    56    44    41    1
    57    36    37    2
    58    12    11    1
    59    41    42    1
    60    42    43    2
    61    11    10   ar
    62    11     9   ar
    63    27    25    1
    64    10     8   ar
    65     9     7   ar
    66     8     6   ar
    67     7     6   ar
    68    25    24    1
    69    26    24    1
    70     6     5    1
    71    24    21    1
    72     5     2    1
    73    18    17    1
    74    21    20    1
    75    21    22    1
    76    16    15    2
    77     2     1    1
    78     2     3    1
    79    20    15   am
    80    17    19    1
    81    17    14    1
    82    15    14    1
    83    22    23    2
    84    14    13    1
    85     3     4    2
