@<TRIPOS>MOLECULE
tmp/2ckeB00.pdb
 124 115 0 0 0
SMALL
GASTEIGER

@<TRIPOS>ATOM
      1  N         -4.6640   12.7280   35.3360 N.3    18  LEU18      -0.1231
      2  CA        -5.9940   12.2060   35.6420 C.3    18  LEU18       0.1693
      3  C         -6.4620   11.2500   34.5500 C.2    18  LEU18       0.2593
      4  O         -6.8820   10.1340   34.8470 O.2    18  LEU18      -0.2718
      5  CB        -6.9980   13.3490   35.8410 C.3    18  LEU18       0.0284
      6  CG        -7.0690   13.9450   37.2550 C.3    18  LEU18       0.0019
      7  CD1       -5.6880   14.1800   37.8400 C.3    18  LEU18       0.0001
      8  CD2       -7.8680   15.2370   37.2570 C.3    18  LEU18       0.0001
      9  N         -6.3830   11.6800   33.2930 N.am   19  GLY19      -0.1942
     10  CA        -6.8000   10.8460   32.1620 C.3    19  GLY19       0.2014
     11  C         -5.9400   11.0520   30.9360 C.2    19  GLY19       0.2640
     12  O         -5.1020   11.9500   30.9080 O.2    19  GLY19      -0.2714
     13  N         -6.1680   10.2370   29.9080 N.am   20  SER20      -0.1935
     14  CA        -5.1860   10.0860   28.8330 C.3    20  SER20       0.2055
     15  C         -5.6950   10.3240   27.3960 C.2    20  SER20       0.2643
     16  O         -6.3040   11.3540   27.1060 O.2    20  SER20      -0.2714
     17  CB        -4.5030    8.7130   28.9570 C.3    20  SER20       0.2130
     18  OG        -4.0640    8.4780   30.2850 O.3    20  SER20      -0.2179
     19  N         -5.5060    9.3190   26.5400 N.am   21  GLY21      -0.1954
     20  CA        -5.0510    9.5030   25.1580 C.3    21  GLY21       0.1869
     21  C         -5.8610   10.1730   24.0570 C.2    21  GLY21       0.2309
     22  O         -6.6000   11.1360   24.2820 O.2    21  GLY21      -0.2863
     23  N         -4.9900   15.1360   30.4130 N.3    26  VAL26      -0.1245
     24  CA        -5.6350   15.8960   31.4810 C.3    26  VAL26       0.1561
     25  C         -4.8260   15.7320   32.7590 C.2    26  VAL26       0.2260
     26  O         -4.5550   14.6080   33.1780 O.2    26  VAL26      -0.2867
     27  CB        -7.0860   15.4140   31.7280 C.3    26  VAL26       0.0252
     28  CG1       -7.7350   16.2040   32.8660 C.3    26  VAL26       0.0019
     29  CG2       -7.9140   15.5220   30.4470 C.3    26  VAL26       0.0019
     30  N         -8.6920   21.1550   36.7440 N.3    39  ALA39      -0.1245
     31  CA        -8.1860   20.1010   35.8660 C.3    39  ALA39       0.1562
     32  C         -7.7700   20.7130   34.5350 C.2    39  ALA39       0.2260
     33  O         -8.6040   21.2620   33.8110 O.2    39  ALA39      -0.2867
     34  CB        -9.2480   19.0310   35.6460 C.3    39  ALA39       0.0290
     35  N         -6.6040   20.4130   30.7800 N.3    41  LYS41      -0.1245
     36  CA        -6.6120   19.5450   29.5970 C.3    41  LYS41       0.1561
     37  C         -5.6390   20.1020   28.5580 C.2    41  LYS41       0.2260
     38  O         -5.9000   21.1420   27.9530 O.2    41  LYS41      -0.2867
     39  CB        -8.0260   19.4550   29.0080 C.3    41  LYS41       0.0271
     40  CG        -8.1830   18.4750   27.8360 C.3    41  LYS41       0.0035
     41  CD        -9.6240   18.4470   27.3210 C.3    41  LYS41       0.0206
     42  CE        -9.7850   17.5280   26.1130 C.3    41  LYS41       0.1093
     43  NZ       -11.1410   17.6260   25.4820 N.3    41  LYS41      -0.1314
     44  N        -19.7150   20.2650   32.6450 N.3    76  ILE76      -0.1245
     45  CA       -18.4070   20.7410   33.0830 C.3    76  ILE76       0.1561
     46  C        -18.2320   22.2200   32.7260 C.2    76  ILE76       0.2260
     47  O        -18.6750   22.6670   31.6670 O.2    76  ILE76      -0.2867
     48  CB       -17.2640   19.8670   32.4920 C.3    76  ILE76       0.0252
     49  CG1      -15.9380   20.1710   33.1870 C.3    76  ILE76       0.0019
     50  CG2      -17.1500   20.0530   30.9810 C.3    76  ILE76       0.0019
     51  CD1      -14.8210   19.2740   32.7490 C.3    76  ILE76       0.0001
     52  N        -10.3070   23.3670   33.1220 N.3    92  LEU92      -0.1231
     53  CA       -11.7000   23.0070   33.3770 C.3    92  LEU92       0.1693
     54  C        -11.9680   22.8660   34.8730 C.2    92  LEU92       0.2592
     55  O        -11.0360   22.7980   35.6770 O.2    92  LEU92      -0.2718
     56  CB       -12.0280   21.6910   32.6690 C.3    92  LEU92       0.0284
     57  CG       -11.9900   21.7680   31.1420 C.3    92  LEU92       0.0019
     58  CD1      -11.6910   20.4090   30.5120 C.3    92  LEU92       0.0001
     59  CD2      -13.2940   22.3340   30.6220 C.3    92  LEU92       0.0001
     60  N        -13.2470   22.8260   35.2350 N.am   93  GLU93      -0.1966
     61  CA       -13.6560   22.5240   36.6010 C.3    93  GLU93       0.1733
     62  C        -13.1500   21.1340   36.9430 C.2    93  GLU93       0.2616
     63  O        -13.2030   20.2370   36.1040 O.2    93  GLU93      -0.2715
     64  CB       -15.1810   22.5640   36.7230 C.3    93  GLU93       0.0429
     65  CG       -15.7220   22.2030   38.1070 C.3    93  GLU93       0.1163
     66  CD       -17.2450   22.0400   38.1410 C.2    93  GLU93       0.3649
     67  OE1      -17.8270   22.1870   39.2450 O.co2  93  GLU93      -0.2457
     68  OE2      -17.8520   21.7630   37.0740 O.co2  93  GLU93      -0.2457
     69  N        -12.6520   20.9640   38.1660 N.am   94  LEU94      -0.1963
     70  CA       -12.1470   19.6690   38.6300 C.3    94  LEU94       0.1728
     71  C        -13.3040   18.7560   39.0310 C.2    94  LEU94       0.2616
     72  O        -14.2210   19.1750   39.7380 O.2    94  LEU94      -0.2715
     73  CB       -11.1890   19.8510   39.8110 C.3    94  LEU94       0.0311
     74  CG       -10.6380   18.5730   40.4550 C.3    94  LEU94       0.0022
     75  CD1       -9.9360   17.6890   39.4260 C.3    94  LEU94       0.0001
     76  CD2       -9.6980   18.9200   41.6030 C.3    94  LEU94       0.0001
     77  N        -13.2440   17.5060   38.5810 N.am   95  VAL95      -0.1977
     78  CA       -14.2940   16.5240   38.8320 C.3    95  VAL95       0.1596
     79  C        -13.6680   15.2630   39.4350 C.2    95  VAL95       0.2287
     80  O        -13.2050   14.3820   38.7110 O.2    95  VAL95      -0.2864
     81  CB       -15.0410   16.1970   37.5210 C.3    95  VAL95       0.0276
     82  CG1      -16.0810   15.1040   37.7380 C.3    95  VAL95       0.0022
     83  CG2      -15.6870   17.4620   36.9640 C.3    95  VAL95       0.0022
     84  N        -17.9250    6.6570   30.2330 N.3   142  GLU142     -0.1231
     85  CA       -16.6730    7.2640   30.7000 C.3   142  GLU142      0.1699
     86  C        -16.6610    8.7920   30.5660 C.2   142  GLU142      0.2592
     87  O        -15.7720    9.4560   31.1110 O.2   142  GLU142     -0.2718
     88  CB       -15.4550    6.6340   30.0110 C.3   142  GLU142      0.0402
     89  CG       -15.0640    7.2300   28.6690 C.3   142  GLU142      0.1161
     90  CD       -14.1660    6.2990   27.8720 C.2   142  GLU142      0.3649
     91  OE1      -12.9280    6.5030   27.8630 O.co2 142  GLU142     -0.2457
     92  OE2      -14.7070    5.3460   27.2680 O.co2 142  GLU142     -0.2457
     93  N        -17.6410    9.3440   29.8500 N.am  143  ASN143     -0.1974
     94  CA       -17.8400   10.7890   29.8030 C.3   143  ASN143      0.1688
     95  C        -18.9140   11.2520   30.7870 C.2   143  ASN143      0.2292
     96  O        -19.3330   12.4130   30.7580 O.2   143  ASN143     -0.2864
     97  CB       -18.1850   11.2340   28.3800 C.3   143  ASN143      0.1181
     98  CG       -16.9920   11.1540   27.4370 C.2   143  ASN143      0.2629
     99  OD1      -15.8480   11.3840   27.8360 O.2   143  ASN143     -0.2716
    100  ND2      -17.2590   10.8350   26.1760 N.am  143  ASN143     -0.0877
    101  N        -19.2390   11.6560   34.6180 N.3   145  MET145     -0.1245
    102  CA       -18.4680   11.6610   35.8570 C.3   145  MET145      0.1570
    103  C        -19.3210   12.1380   37.0250 C.2   145  MET145      0.2261
    104  O        -20.4350   12.6250   36.8390 O.2   145  MET145     -0.2867
    105  CB       -17.2530   12.5820   35.7160 C.3   145  MET145      0.0387
    106  CG       -16.3230   12.2440   34.5550 C.3   145  MET145      0.0595
    107  SD       -14.9980   11.1270   35.0220 S.3   145  MET145     -0.1393
    108  CE       -13.9200   12.2360   35.9360 C.3   145  MET145      0.0692
    109  N        -18.7590   15.5920   30.5720 N.3   159  ILE159     -0.1231
    110  CA       -17.4350   16.0900   30.1830 C.3   159  ILE159      0.1692
    111  C        -17.1320   15.7820   28.7110 C.2   159  ILE159      0.2592
    112  O        -17.9290   15.1280   28.0340 O.2   159  ILE159     -0.2718
    113  CB       -16.3210   15.4760   31.0710 C.3   159  ILE159      0.0266
    114  CG1      -16.3230   13.9450   30.9720 C.3   159  ILE159      0.0019
    115  CG2      -16.4990   15.9010   32.5230 C.3   159  ILE159      0.0020
    116  CD1      -15.0480   13.2900   31.4820 C.3   159  ILE159      0.0001
    117  N        -15.9850   16.2670   28.2340 N.am  160  ASP160     -0.1974
    118  CA       -15.4750   15.9810   26.8850 C.3   160  ASP160      0.1709
    119  C        -16.4330   16.3960   25.7610 C.2   160  ASP160      0.2293
    120  O        -17.2610   15.6060   25.3070 O.2   160  ASP160     -0.2864
    121  CB       -15.1000   14.5000   26.7480 C.3   160  ASP160      0.1436
    122  CG       -14.2120   14.2240   25.5390 C.2   160  ASP160      0.3671
    123  OD1      -14.0510   15.1190   24.6830 O.co2 160  ASP160     -0.2456
    124  OD2      -13.6680   13.1020   25.4480 O.co2 160  ASP160     -0.2456
@<TRIPOS>BOND
     1    21    22    2
     2    21    20    1
     3   123   122   ar
     4    20    19    1
     5   120   119    2
     6   124   122   ar
     7    43    42    1
     8   122   121    1
     9   119   118    1
    10    42    41    1
    11   100    98   am
    12    19    15   am
    13   121   118    1
    14   118   117    1
    15    16    15    2
    16    92    90   ar
    17    41    40    1
    18    15    14    1
    19    98    99    2
    20    98    97    1
    21    40    39    1
    22    91    90   ar
    23    90    89    1
    24    38    37    2
    25   112   111    2
    26   117   111   am
    27    97    94    1
    28    37    36    1
    29    89    88    1
    30   111   110    1
    31    14    17    1
    32    14    13    1
    33    17    18    1
    34    39    36    1
    35    36    35    1
    36    94    93    1
    37    94    95    1
    38    93    86   am
    39    13    11   am
    40    88    85    1
    41   110   109    1
    42   110   113    1
    43    84    85    1
    44    23    24    1
    45    29    27    1
    46    58    57    1
    47    86    85    1
    48    86    87    2
    49    59    57    1
    50    96    95    2
    51    12    11    2
    52    11    10    1
    53   114   113    1
    54   114   116    1
    55    50    48    1
    56   113   115    1
    57    57    56    1
    58    24    27    1
    59    24    25    1
    60    47    46    2
    61    27    28    1
    62    10     9    1
    63    48    45    1
    64    48    49    1
    65    44    45    1
    66    56    53    1
    67    46    45    1
    68    51    49    1
    69    25    26    2
    70    52    53    1
    71     9     3   am
    72    53    54    1
    73    33    32    2
    74    32    31    1
    75     3     4    2
    76     3     2    1
    77   106   107    1
    78   106   105    1
    79   101   102    1
    80    54    60   am
    81    54    55    2
    82   107   108    1
    83    60    61    1
    84     1     2    1
    85     2     5    1
    86    34    31    1
    87   105   102    1
    88     5     6    1
    89   102   103    1
    90    31    30    1
    91    63    62    2
    92    61    64    1
    93    61    62    1
    94    64    65    1
    95   104   103    2
    96    62    69   am
    97    83    81    1
    98    68    66   ar
    99     6     8    1
   100     6     7    1
   101    81    82    1
   102    81    78    1
   103    65    66    1
   104    66    67   ar
   105    69    70    1
   106    77    78    1
   107    77    71   am
   108    70    71    1
   109    70    73    1
   110    80    79    2
   111    78    79    1
   112    71    72    2
   113    75    74    1
   114    73    74    1
   115    74    76    1
