@<TRIPOS>MOLECULE
tmp/2ckmA00.pdb
 242 240 0 0 0
SMALL
GASTEIGER

@<TRIPOS>ATOM
      1  N         -7.3100   64.0970   66.5960 N.3    67  TYR67      -0.1241
      2  CA        -6.9790   64.2960   68.0180 C.3    67  TYR67       0.1605
      3  C         -6.4800   65.7310   68.1710 C.2    67  TYR67       0.2264
      4  O         -5.7750   66.2270   67.3090 O.2    67  TYR67      -0.2867
      5  CB        -5.8450   63.3980   68.4670 C.3    67  TYR67       0.0534
      6  CG        -5.5360   63.4790   69.9750 C.ar   67  TYR67      -0.0201
      7  CD1       -6.3850   62.8750   70.9250 C.ar   67  TYR67      -0.0009
      8  CD2       -4.3850   64.1320   70.4440 C.ar   67  TYR67      -0.0009
      9  CE1       -6.0990   62.9050   72.2750 C.ar   67  TYR67       0.0417
     10  CE2       -4.0880   64.1820   71.8190 C.ar   67  TYR67       0.0417
     11  CZ        -4.9510   63.5570   72.7230 C.ar   67  TYR67       0.1957
     12  OH        -4.6420   63.5530   74.0660 O.3    67  TYR67      -0.2866
     13  N         -4.2110   68.3360   70.3280 N.3    69  ASP69      -0.1239
     14  CA        -3.1780   68.4500   71.3460 C.3    69  ASP69       0.1674
     15  C         -3.5520   69.4900   72.3980 C.2    69  ASP69       0.2266
     16  O         -3.8220   70.6400   72.0690 O.2    69  ASP69      -0.2867
     17  CB        -1.8560   68.8140   70.6650 C.3    69  ASP69       0.1410
     18  CG        -0.7270   69.0940   71.6530 C.2    69  ASP69       0.3668
     19  OD1       -0.6950   68.4730   72.7430 O.co2  69  ASP69      -0.2456
     20  OD2        0.1460   69.9240   71.3080 O.co2  69  ASP69      -0.2456
     21  N          2.8040   74.7190   70.2060 N.3    78  SER78      -0.1217
     22  CA         2.0570   73.5220   69.8840 C.3    78  SER78       0.1889
     23  C          0.6740   73.8150   69.3050 C.2    78  SER78       0.2288
     24  O          0.0890   72.9850   68.6010 O.2    78  SER78      -0.2866
     25  CB         1.9050   72.6810   71.1460 C.3    78  SER78       0.2089
     26  OG         1.2030   73.4020   72.1240 O.3    78  SER78      -0.2183
     27  N         -0.0660   73.8390   65.3300 N.3    81  TRP81      -0.1227
     28  CA        -0.2510   72.5740   64.6120 C.3    81  TRP81       0.1737
     29  C         -1.6770   72.0370   64.7070 C.2    81  TRP81       0.2595
     30  O         -2.0650   71.1920   63.9030 O.2    81  TRP81      -0.2718
     31  CB         0.6980   71.4750   65.1550 C.3    81  TRP81       0.0564
     32  CG         2.1540   71.8780   65.1660 C.ar   81  TRP81       0.0003
     33  CD1        2.9040   72.2150   66.2580 C.ar   81  TRP81       0.0946
     34  CD2        3.0210   72.0080   64.0300 C.ar   81  TRP81       0.0152
     35  NE1        4.1820   72.5400   65.8780 N.ar   81  TRP81      -0.2442
     36  CE2        4.2890   72.4260   64.5170 C.ar   81  TRP81       0.0810
     37  CE3        2.8510   71.8210   62.6500 C.ar   81  TRP81       0.0012
     38  CZ2        5.3920   72.6560   63.6700 C.ar   81  TRP81       0.0191
     39  CZ3        3.9560   72.0550   61.7980 C.ar   81  TRP81       0.0001
     40  CH2        5.2070   72.4670   62.3300 C.ar   81  TRP81       0.0015
     41  N         -2.4440   72.5080   65.6890 N.am   82  ASN82      -0.1974
     42  CA        -3.8310   72.0600   65.8860 C.3    82  ASN82       0.1688
     43  C         -4.7410   72.6420   64.8540 C.2    82  ASN82       0.2292
     44  O         -4.4390   73.6690   64.2660 O.2    82  ASN82      -0.2864
     45  CB        -4.3940   72.4860   67.2420 C.3    82  ASN82       0.1181
     46  CG        -4.0380   71.5370   68.3780 C.2    82  ASN82       0.2629
     47  OD1       -3.8990   70.3220   68.1940 O.2    82  ASN82      -0.2716
     48  ND2       -3.9220   72.1020   69.5820 N.am   82  ASN82      -0.0877
     49  N          1.9010   66.8730   57.1120 N.3   114  GLY114     -0.1210
     50  CA         2.2700   65.7970   58.0130 C.3   114  GLY114      0.1956
     51  C          1.3660   65.7770   59.2420 C.2   114  GLY114      0.2612
     52  O          0.2840   66.3930   59.2720 O.2   114  GLY114     -0.2717
     53  N          1.8120   65.0620   60.2650 N.am  115  GLY115     -0.1942
     54  CA         1.0330   64.9600   61.4890 C.3   115  GLY115      0.2014
     55  C          0.8220   63.4960   61.8980 C.2   115  GLY115      0.2639
     56  O         -0.2030   63.1810   62.5040 O.2   115  GLY115     -0.2714
     57  N          1.7960   62.6320   61.5480 N.am  116  GLY116     -0.1954
     58  CA         1.7880   61.2050   61.8840 C.3   116  GLY116      0.1869
     59  C          0.6510   60.3450   61.3600 C.2   116  GLY116      0.2309
     60  O          0.4090   59.2370   61.8510 O.2   116  GLY116     -0.2863
     61  N         -2.2620   60.8260   61.8370 N.3   118  TYR118     -0.1227
     62  CA        -3.3880   60.8490   62.7680 C.3   118  TYR118      0.1736
     63  C         -3.8940   62.2730   62.9630 C.2   118  TYR118      0.2596
     64  O         -4.8890   62.4990   63.6590 O.2   118  TYR118     -0.2718
     65  CB        -2.9860   60.2670   64.1580 C.3   118  TYR118      0.0548
     66  CG        -2.0520   61.1670   64.9530 C.ar  118  TYR118     -0.0200
     67  CD1       -2.5580   62.2580   65.6780 C.ar  118  TYR118     -0.0009
     68  CD2       -0.6640   60.9770   64.9290 C.ar  118  TYR118     -0.0009
     69  CE1       -1.7070   63.1410   66.3630 C.ar  118  TYR118      0.0417
     70  CE2        0.1980   61.8350   65.6080 C.ar  118  TYR118      0.0417
     71  CZ        -0.3280   62.9210   66.3290 C.ar  118  TYR118      0.1957
     72  OH         0.5040   63.7870   67.0480 O.3   118  TYR118     -0.2866
     73  N         -3.1880   63.2380   62.4010 N.am  119  SER119     -0.1952
     74  CA        -3.5800   64.6260   62.5630 C.3   119  SER119      0.1924
     75  C         -3.0800   65.4050   61.3650 C.2   119  SER119      0.2314
     76  O         -2.4660   64.8200   60.4640 O.2   119  SER119     -0.2863
     77  CB        -2.9940   65.2050   63.8720 C.3   119  SER119      0.2116
     78  OG        -1.5840   65.2700   63.8340 O.3   119  SER119     -0.2180
     79  N          1.3890   76.9340   56.8480 N.3   127  TYR127     -0.1241
     80  CA         1.2270   76.3300   55.5220 C.3   127  TYR127      0.1605
     81  C          0.6410   77.3290   54.5010 C.2   127  TYR127      0.2264
     82  O          0.2700   76.9380   53.4000 O.2   127  TYR127     -0.2867
     83  CB         0.3100   75.0880   55.5690 C.3   127  TYR127      0.0534
     84  CG         0.7950   73.9170   56.3990 C.ar  127  TYR127     -0.0201
     85  CD1        2.1530   73.7730   56.7560 C.ar  127  TYR127     -0.0009
     86  CD2       -0.1220   72.9730   56.8740 C.ar  127  TYR127     -0.0009
     87  CE1        2.5650   72.7170   57.5810 C.ar  127  TYR127      0.0417
     88  CE2        0.2680   71.9440   57.6790 C.ar  127  TYR127      0.0417
     89  CZ         1.6040   71.8100   58.0390 C.ar  127  TYR127      0.1957
     90  OH         1.9430   70.7860   58.8730 O.3   127  TYR127     -0.2866
     91  N          5.9360   67.2070   54.5460 N.3   196  GLU196     -0.1231
     92  CA         6.8180   67.0380   55.7050 C.3   196  GLU196      0.1699
     93  C          6.3370   65.9550   56.6530 C.2   196  GLU196      0.2592
     94  O          5.1550   65.7620   56.8110 O.2   196  GLU196     -0.2718
     95  CB         6.9760   68.3780   56.4530 C.3   196  GLU196      0.0402
     96  CG         7.9760   68.3590   57.5860 C.3   196  GLU196      0.1161
     97  CD         7.3380   68.0410   58.9580 C.2   196  GLU196      0.3649
     98  OE1        6.0950   68.0000   59.0290 O.co2 196  GLU196     -0.2457
     99  OE2        8.0730   67.8440   59.9600 O.co2 196  GLU196     -0.2457
    100  N          7.2630   65.2300   57.2560 N.am  197  SER197     -0.1952
    101  CA         6.9010   64.1650   58.1970 C.3   197  SER197      0.1924
    102  C          6.0150   63.1370   57.4830 C.2   197  SER197      0.2314
    103  O          6.3960   62.6500   56.4560 O.2   197  SER197     -0.2863
    104  CB         6.1760   64.7710   59.3910 C.3   197  SER197      0.2116
    105  OG         6.4910   64.0030   60.5210 O.3   197  SER197     -0.2180
    106  N        -11.8610   58.9020   68.0210 N.3   272  ILE272     -0.1231
    107  CA       -10.6880   59.6130   68.4690 C.3   272  ILE272      0.1692
    108  C        -10.4120   59.3660   69.9720 C.2   272  ILE272      0.2592
    109  O         -9.2570   59.2030   70.3720 O.2   272  ILE272     -0.2718
    110  CB       -10.8410   61.1030   68.1370 C.3   272  ILE272      0.0266
    111  CG1      -10.8680   61.2170   66.6230 C.3   272  ILE272      0.0019
    112  CG2       -9.6810   61.9890   68.7510 C.3   272  ILE272      0.0020
    113  CD1      -11.2360   62.6040   66.1180 C.3   272  ILE272      0.0001
    114  N        -11.4540   59.2840   70.7970 N.am  273  ASP273     -0.1974
    115  CA       -11.2450   59.0590   72.2270 C.3   273  ASP273      0.1709
    116  C        -10.4950   57.7710   72.6140 C.2   273  ASP273      0.2293
    117  O         -9.8590   57.7300   73.6850 O.2   273  ASP273     -0.2864
    118  CB       -12.5850   59.1280   72.9950 C.3   273  ASP273      0.1436
    119  CG       -13.0520   60.5670   73.2460 C.2   273  ASP273      0.3671
    120  OD1      -12.2680   61.5390   73.0260 O.co2 273  ASP273     -0.2456
    121  OD2      -14.2030   60.7390   73.6750 O.co2 273  ASP273     -0.2456
    122  N         -8.5130   55.9020   70.0940 N.3   275  GLU275     -0.1231
    123  CA        -7.5230   55.6790   69.0270 C.3   275  GLU275      0.1699
    124  C         -6.1460   55.2090   69.4910 C.2   275  GLU275      0.2592
    125  O         -5.5430   54.3230   68.9060 O.2   275  GLU275     -0.2718
    126  CB        -7.3460   56.9880   68.2370 C.3   275  GLU275      0.0402
    127  CG        -6.6570   56.9060   66.8830 C.3   275  GLU275      0.1161
    128  CD        -6.5720   58.2670   66.1650 C.2   275  GLU275      0.3649
    129  OE1       -7.5000   59.0940   66.2950 O.co2 275  GLU275     -0.2457
    130  OE2       -5.5800   58.5030   65.4500 O.co2 275  GLU275     -0.2457
    131  N         -5.6480   55.8030   70.5550 N.am  276  TRP276     -0.1962
    132  CA        -4.3260   55.4640   71.0450 C.3   276  TRP276      0.1771
    133  C         -4.2670   54.1560   71.8340 C.2   276  TRP276      0.2619
    134  O         -3.1810   53.6100   72.0400 O.2   276  TRP276     -0.2715
    135  CB        -3.8070   56.6350   71.8690 C.3   276  TRP276      0.0590
    136  CG        -2.5550   57.1870   71.3700 C.ar  276  TRP276      0.0006
    137  CD1       -1.4440   57.4850   72.1200 C.ar  276  TRP276      0.0946
    138  CD2       -2.2010   57.4640   70.0030 C.ar  276  TRP276      0.0152
    139  NE1       -0.4250   57.9320   71.3050 N.ar  276  TRP276     -0.2442
    140  CE2       -0.8570   57.9270   70.0030 C.ar  276  TRP276      0.0810
    141  CE3       -2.8820   57.3560   68.7730 C.ar  276  TRP276      0.0012
    142  CZ2       -0.1760   58.2870   68.8230 C.ar  276  TRP276      0.0191
    143  CZ3       -2.2070   57.7090   67.5810 C.ar  276  TRP276      0.0001
    144  CH2       -0.8600   58.1730   67.6260 C.ar  276  TRP276      0.0015
    145  N         -5.4240   53.6150   72.2240 N.am  277  ASN277     -0.1972
    146  CA        -5.4360   52.3810   73.0000 C.3   277  ASN277      0.1688
    147  C         -5.0910   51.1150   72.2060 C.2   277  ASN277      0.2292
    148  O         -4.9810   50.0350   72.7930 O.2   277  ASN277     -0.2864
    149  CB        -6.8030   52.1930   73.6890 C.3   277  ASN277      0.1181
    150  CG        -7.1730   53.3600   74.6390 C.2   277  ASN277      0.2629
    151  OD1       -6.3200   54.2100   74.9970 O.2   277  ASN277     -0.2716
    152  ND2       -8.4420   53.3940   75.0640 N.am  277  ASN277     -0.0877
    153  N          2.2540   55.5330   65.6600 N.3   287  PHE287     -0.1241
    154  CA         0.8980   55.9740   65.4940 C.3   287  PHE287      0.1605
    155  C         -0.0190   54.8090   65.1680 C.2   287  PHE287      0.2264
    156  O          0.3570   53.8290   64.5050 O.2   287  PHE287     -0.2867
    157  CB         0.9120   57.0450   64.4060 C.3   287  PHE287      0.0534
    158  CG         2.0590   58.0440   64.5450 C.ar  287  PHE287     -0.0203
    159  CD1        2.1240   58.9060   65.6270 C.ar  287  PHE287     -0.0042
    160  CD2        3.0590   58.1210   63.5850 C.ar  287  PHE287     -0.0042
    161  CE1        3.1780   59.8480   65.7620 C.ar  287  PHE287     -0.0003
    162  CE2        4.1030   59.0460   63.7030 C.ar  287  PHE287     -0.0003
    163  CZ         4.1580   59.9120   64.8030 C.ar  287  PHE287     -0.0000
    164  N         10.9200   66.7070   70.0870 N.3   327  PHE327     -0.1241
    165  CA         9.5060   66.8700   70.3130 C.3   327  PHE327      0.1605
    166  C          8.8140   65.6050   70.8910 C.2   327  PHE327      0.2264
    167  O          7.9530   65.6940   71.8110 O.2   327  PHE327     -0.2867
    168  CB         8.8720   67.3490   68.9850 C.3   327  PHE327      0.0534
    169  CG         7.5110   66.8020   68.7190 C.ar  327  PHE327     -0.0203
    170  CD1        7.3000   65.9540   67.6490 C.ar  327  PHE327     -0.0042
    171  CD2        6.4330   67.1480   69.5300 C.ar  327  PHE327     -0.0042
    172  CE1        6.0230   65.4480   67.3740 C.ar  327  PHE327     -0.0003
    173  CE2        5.1220   66.6480   69.2670 C.ar  327  PHE327     -0.0003
    174  CZ         4.9270   65.8010   68.1870 C.ar  327  PHE327     -0.0000
    175  N          6.9360   64.9900   74.6940 N.3   331  TYR331     -0.1241
    176  CA         5.6030   64.4530   74.8400 C.3   331  TYR331      0.1605
    177  C          5.4710   63.1080   75.5290 C.2   331  TYR331      0.2264
    178  O          4.5590   62.9560   76.3280 O.2   331  TYR331     -0.2867
    179  CB         4.8540   64.4180   73.4880 C.3   331  TYR331      0.0534
    180  CG         4.2750   65.7650   73.1190 C.ar  331  TYR331     -0.0201
    181  CD1        5.1150   66.8450   72.8380 C.ar  331  TYR331     -0.0009
    182  CD2        2.9000   65.9830   73.0930 C.ar  331  TYR331     -0.0009
    183  CE1        4.6120   68.1040   72.5370 C.ar  331  TYR331      0.0417
    184  CE2        2.3790   67.2540   72.7920 C.ar  331  TYR331      0.0417
    185  CZ         3.2460   68.3180   72.5070 C.ar  331  TYR331      0.1957
    186  OH         2.7900   69.5810   72.1460 O.3   331  TYR331     -0.2866
    187  N         10.1610   77.3920   71.9400 N.3   429  TRP429     -0.1241
    188  CA        10.4680   76.1160   72.6350 C.3   429  TRP429      0.1605
    189  C         11.8140   76.2720   73.3190 C.2   429  TRP429      0.2264
    190  O         12.6580   77.0080   72.8420 O.2   429  TRP429     -0.2867
    191  CB        10.5430   74.9340   71.6370 C.3   429  TRP429      0.0550
    192  CG         9.2040   74.5680   71.0060 C.ar  429  TRP429      0.0003
    193  CD1        8.7420   74.9290   69.7680 C.ar  429  TRP429      0.0946
    194  CD2        8.1460   73.8240   71.6130 C.ar  429  TRP429      0.0152
    195  NE1        7.4570   74.4510   69.5690 N.ar  429  TRP429     -0.2442
    196  CE2        7.0710   73.7700   70.6840 C.ar  429  TRP429      0.0810
    197  CE3        7.9930   73.2070   72.8480 C.ar  429  TRP429      0.0012
    198  CZ2        5.8670   73.1160   70.9610 C.ar  429  TRP429      0.0191
    199  CZ3        6.7830   72.5520   73.1280 C.ar  429  TRP429      0.0001
    200  CH2        5.7440   72.5150   72.1820 C.ar  429  TRP429      0.0015
    201  N         15.6480   71.5150   73.0170 N.3   433  MET433     -0.1245
    202  CA        14.9820   70.8510   71.9150 C.3   433  MET433      0.1570
    203  C         15.6450   71.1190   70.5650 C.2   433  MET433      0.2261
    204  O         15.3610   70.4310   69.5900 O.2   433  MET433     -0.2867
    205  CB        13.4920   71.2280   71.8780 C.3   433  MET433      0.0387
    206  CG        12.6820   70.6900   73.0620 C.3   433  MET433      0.0595
    207  SD        10.9350   71.2090   73.0600 S.3   433  MET433     -0.1393
    208  CE        10.2990   70.1780   71.7270 C.3   433  MET433      0.0692
    209  N         13.9470   71.5960   65.9120 N.3   436  ILE436     -0.1231
    210  CA        12.7790   70.7440   66.0150 C.3   436  ILE436      0.1692
    211  C         12.0710   70.2120   64.7660 C.2   436  ILE436      0.2592
    212  O         12.0440   70.8570   63.7090 O.2   436  ILE436     -0.2718
    213  CB        11.7570   71.4690   66.8760 C.3   436  ILE436      0.0266
    214  CG1       12.4450   71.8790   68.1920 C.3   436  ILE436      0.0019
    215  CG2       10.5090   70.6260   67.0700 C.3   436  ILE436      0.0020
    216  CD1       11.6080   72.7390   69.0390 C.3   436  ILE436      0.0001
    217  N         11.5130   69.0080   64.9190 N.am  437  HIS437     -0.1962
    218  CA        10.7630   68.3490   63.8890 C.3   437  HIS437      0.1787
    219  C          9.6900   69.3440   63.4700 C.2   437  HIS437      0.2621
    220  O          8.9040   69.7750   64.2990 O.2   437  HIS437     -0.2715
    221  CB        10.0910   67.1280   64.4510 C.3   437  HIS437      0.0785
    222  CG         9.4650   66.2330   63.4260 C.ar  437  HIS437      0.0821
    223  ND1       10.1880   65.6650   62.3930 N.ar  437  HIS437     -0.2267
    224  CD2        8.2090   65.7260   63.3350 C.ar  437  HIS437      0.1154
    225  CE1        9.4060   64.8390   61.7200 C.ar  437  HIS437      0.1986
    226  NE2        8.2030   64.8570   62.2710 N.ar  437  HIS437     -0.2212
    227  N          9.6670   69.6880   62.1810 N.am  438  GLY438     -0.1940
    228  CA         8.6760   70.6140   61.6790 C.3   438  GLY438      0.2014
    229  C          9.0770   72.0920   61.5740 C.2   438  GLY438      0.2638
    230  O          8.4050   72.8630   60.9090 O.2   438  GLY438     -0.2714
    231  N         10.1720   72.4950   62.1990 N.am  439  TYR439     -0.1973
    232  CA        10.5390   73.8920   62.1570 C.3   439  TYR439      0.1639
    233  C         11.3180   74.3940   60.9830 C.2   439  TYR439      0.2290
    234  O         11.8660   75.5140   61.0290 O.2   439  TYR439     -0.2864
    235  CB        11.1930   74.3120   63.4880 C.3   439  TYR439      0.0560
    236  CG        10.1130   74.4440   64.5270 C.ar  439  TYR439     -0.0198
    237  CD1        9.5430   73.3010   65.1050 C.ar  439  TYR439     -0.0009
    238  CD2        9.5150   75.6810   64.7780 C.ar  439  TYR439     -0.0009
    239  CE1        8.3940   73.3790   65.8950 C.ar  439  TYR439      0.0417
    240  CE2        8.3590   75.7750   65.5600 C.ar  439  TYR439      0.0417
    241  CZ         7.8000   74.6170   66.1150 C.ar  439  TYR439      0.1957
    242  OH         6.6410   74.6780   66.8430 O.3   439  TYR439     -0.2866
@<TRIPOS>BOND
     1    82    81    2
     2    81    80    1
     3    91    92    1
     4    80    83    1
     5    80    79    1
     6    83    84    1
     7    92    95    1
     8    92    93    1
     9    84    85   ar
    10    84    86   ar
    11    95    96    1
    12   103   102    2
    13    93    94    2
    14    93   100   am
    15    85    87   ar
    16    86    88   ar
    17    49    50    1
    18   100   101    1
    19   102   101    1
    20    87    89   ar
    21    96    97    1
    22    88    89   ar
    23    50    51    1
    24    89    90    1
    25   101   104    1
    26    97    98   ar
    27    97    99   ar
    28    51    52    2
    29    51    53   am
    30   104   105    1
    31    53    54    1
    32    76    75    2
    33   230   229    2
    34   233   234    2
    35   233   232    1
    36    59    60    2
    37    59    58    1
    38    75    74    1
    39    54    55    1
    40    57    58    1
    41    57    55   am
    42   229   228    1
    43   229   231   am
    44   228   227    1
    45   225   226   ar
    46   225   223   ar
    47    39    40   ar
    48    39    37   ar
    49    61    62    1
    50    55    56    2
    51   232   231    1
    52   232   235    1
    53   227   219   am
    54   226   224   ar
    55    40    38   ar
    56   223   222   ar
    57    73    74    1
    58    73    63   am
    59    74    77    1
    60    37    34   ar
    61    62    63    1
    62    62    65    1
    63    63    64    2
    64   224   222   ar
    65   222   221    1
    66   219   218    1
    67   219   220    2
    68   235   236    1
    69   160   162   ar
    70   160   158   ar
    71    38    36   ar
    72   162   163   ar
    73   212   211    2
    74    78    77    1
    75   218   221    1
    76   218   217    1
    77    30    29    2
    78    34    36   ar
    79    34    32   ar
    80    65    66    1
    81    44    43    2
    82   157   158    1
    83   157   154    1
    84   156   155    2
    85    36    35   ar
    86   236   238   ar
    87   236   237   ar
    88   158   159   ar
    89    28    29    1
    90    28    31    1
    91    28    27    1
    92    29    41   am
    93   211   217   am
    94   211   210    1
    95   238   240   ar
    96   163   161   ar
    97    43    42    1
    98    68    66   ar
    99    68    70   ar
   100    66    67   ar
   101   237   239   ar
   102    31    32    1
   103    32    33   ar
   104   155   154    1
   105   130   128   ar
   106   154   153    1
   107   240   241   ar
   108    70    71   ar
   109   159   161   ar
   110    67    69   ar
   111    41    42    1
   112    35    33   ar
   113    42    45    1
   114   239   241   ar
   115   209   210    1
   116   210   213    1
   117   241   242    1
   118   113   111    1
   119   128   129   ar
   120   128   127    1
   121    71    69   ar
   122    71    72    1
   123     1     2    1
   124   111   110    1
   125   213   215    1
   126   213   214    1
   127   127   126    1
   128    45    46    1
   129     4     3    2
   130   172   170   ar
   131   172   174   ar
   132   143   144   ar
   133   143   141   ar
   134   144   142   ar
   135   170   169   ar
   136     2     3    1
   137     2     5    1
   138   106   107    1
   139   110   107    1
   140   110   112    1
   141   174   173   ar
   142   214   216    1
   143    47    46    2
   144   126   123    1
   145    46    48   am
   146     5     6    1
   147   107   108    1
   148    24    23    2
   149   169   168    1
   150   169   171   ar
   151   141   138   ar
   152   142   140   ar
   153   125   124    2
   154   168   165    1
   155   123   124    1
   156   123   122    1
   157   173   171   ar
   158    23    22    1
   159   124   131   am
   160   195   193   ar
   161   195   196   ar
   162   204   203    2
   163   193   192   ar
   164    22    21    1
   165    22    25    1
   166   108   109    2
   167   108   114   am
   168     6     8   ar
   169     6     7   ar
   170   140   138   ar
   171   140   139   ar
   172   138   136   ar
   173   164   165    1
   174   165   166    1
   175    13    14    1
   176     8    10   ar
   177   131   132    1
   178   203   202    1
   179    17    14    1
   180    17    18    1
   181   196   198   ar
   182   196   194   ar
   183   114   115    1
   184   166   167    2
   185     7     9   ar
   186   198   200   ar
   187   192   194   ar
   188   192   191    1
   189   132   133    1
   190   132   135    1
   191    25    26    1
   192   139   137   ar
   193    20    18   ar
   194    14    15    1
   195   136   135    1
   196   136   137   ar
   197   194   197   ar
   198   191   188    1
   199    18    19   ar
   200   208   207    1
   201    10    11   ar
   202   133   134    2
   203   133   145   am
   204   205   202    1
   205   205   206    1
   206   202   201    1
   207   187   188    1
   208    16    15    2
   209   186   185    1
   210   200   199   ar
   211   147   148    2
   212   147   146    1
   213   145   146    1
   214   115   116    1
   215   115   118    1
   216     9    11   ar
   217   185   183   ar
   218   185   184   ar
   219   183   181   ar
   220   116   117    2
   221   188   189    1
   222    11    12    1
   223   184   182   ar
   224   181   180   ar
   225   190   189    2
   226   197   199   ar
   227   118   119    1
   228   146   149    1
   229   120   119   ar
   230   207   206    1
   231   182   180   ar
   232   180   179    1
   233   119   121   ar
   234   179   176    1
   235   149   150    1
   236   150   151    2
   237   150   152   am
   238   175   176    1
   239   176   177    1
   240   177   178    2
