@<TRIPOS>MOLECULE
tmp/2ckoA00.pdb
 121 119 0 0 0
SMALL
GASTEIGER

@<TRIPOS>ATOM
      1  N          0.9470   23.5690  -28.9230 N.3   193  ASP193     -0.1239
      2  CA        -0.2350   24.3510  -28.5200 C.3   193  ASP193      0.1674
      3  C          0.1760   25.5990  -27.7500 C.2   193  ASP193      0.2266
      4  O         -0.4320   25.9630  -26.7410 O.2   193  ASP193     -0.2867
      5  CB        -1.2400   23.4950  -27.7020 C.3   193  ASP193      0.1410
      6  CG        -2.6290   24.2050  -27.4940 C.2   193  ASP193      0.3668
      7  OD1       -3.0120   25.0830  -28.2930 O.co2 193  ASP193     -0.2456
      8  OD2       -3.3280   23.9000  -26.5150 O.co2 193  ASP193     -0.2456
      9  N         -0.1120   28.8250  -27.1350 N.3   195  GLN195     -0.1245
     10  CA        -0.9610   30.0210  -27.2100 C.3   195  GLN195      0.1566
     11  C         -0.9100   30.7530  -25.8710 C.2   195  GLN195      0.2260
     12  O         -0.4980   30.1830  -24.8830 O.2   195  GLN195     -0.2867
     13  CB        -2.4180   29.6170  -27.5300 C.3   195  GLN195      0.0367
     14  CG        -2.9840   28.7010  -26.4580 C.3   195  GLN195      0.0905
     15  CD        -4.4640   28.8650  -26.2320 C.2   195  GLN195      0.2608
     16  OE1       -5.2230   27.9630  -26.5160 O.2   195  GLN195     -0.2717
     17  NE2       -4.8810   30.0260  -25.7160 N.am  195  GLN195     -0.0878
     18  N         -0.7730   18.0420  -25.8500 N.3   220  TYR220     -0.1241
     19  CA        -0.6140   17.7700  -27.2870 C.3   220  TYR220      0.1605
     20  C          0.8360   17.5250  -27.7170 C.2   220  TYR220      0.2264
     21  O          1.0770   17.2060  -28.8850 O.2   220  TYR220     -0.2867
     22  CB        -1.1780   18.9140  -28.1450 C.3   220  TYR220      0.0534
     23  CG        -2.6870   19.1350  -28.0730 C.ar  220  TYR220     -0.0201
     24  CD1       -3.2050   20.1990  -27.3320 C.ar  220  TYR220     -0.0009
     25  CD2       -3.5880   18.3110  -28.7700 C.ar  220  TYR220     -0.0009
     26  CE1       -4.5720   20.4490  -27.2610 C.ar  220  TYR220      0.0417
     27  CE2       -4.9890   18.5490  -28.7020 C.ar  220  TYR220      0.0417
     28  CZ        -5.4590   19.6320  -27.9360 C.ar  220  TYR220      0.1957
     29  OH        -6.8070   19.9240  -27.8120 O.3   220  TYR220     -0.2866
     30  N         -1.3820   32.2160  -33.4270 N.3   236  GLU236     -0.1245
     31  CA        -2.0790   32.5630  -32.1660 C.3   236  GLU236      0.1567
     32  C         -2.1230   34.0350  -31.8050 C.2   236  GLU236      0.2260
     33  O         -2.9520   34.4830  -30.9810 O.2   236  GLU236     -0.2867
     34  CB        -1.5450   31.7160  -31.0060 C.3   236  GLU236      0.0388
     35  CG        -2.0710   30.2550  -31.1010 C.3   236  GLU236      0.1160
     36  CD        -3.6070   30.1580  -30.8610 C.2   236  GLU236      0.3649
     37  OE1       -4.2680   31.1850  -30.5210 O.co2 236  GLU236     -0.2457
     38  OE2       -4.1480   29.0440  -30.9990 O.co2 236  GLU236     -0.2457
     39  N         -9.4270   34.2540  -27.5080 N.3   241  TYR241     -0.1241
     40  CA       -10.4730   33.3710  -27.0040 C.3   241  TYR241      0.1605
     41  C        -11.2400   33.8620  -25.7640 C.2   241  TYR241      0.2264
     42  O        -12.0010   33.1090  -25.2040 O.2   241  TYR241     -0.2867
     43  CB        -9.9090   31.9900  -26.7170 C.3   241  TYR241      0.0534
     44  CG        -9.0970   31.4220  -27.8500 C.ar  241  TYR241     -0.0201
     45  CD1       -9.7040   31.0510  -29.0680 C.ar  241  TYR241     -0.0009
     46  CD2       -7.7220   31.2250  -27.7070 C.ar  241  TYR241     -0.0009
     47  CE1       -8.9570   30.5290  -30.1130 C.ar  241  TYR241      0.0417
     48  CE2       -6.9800   30.7080  -28.7590 C.ar  241  TYR241      0.0417
     49  CZ        -7.5970   30.3560  -29.9480 C.ar  241  TYR241      0.1957
     50  OH        -6.8370   29.8260  -30.9730 O.3   241  TYR241     -0.2866
     51  N         -5.9730   22.7520  -37.0710 N.3   307  TRP307     -0.1241
     52  CA        -6.9410   23.2580  -36.0830 C.3   307  TRP307      0.1605
     53  C         -8.3490   23.5430  -36.6490 C.2   307  TRP307      0.2264
     54  O         -9.3370   23.4910  -35.9000 O.2   307  TRP307     -0.2867
     55  CB        -6.4300   24.4890  -35.3500 C.3   307  TRP307      0.0550
     56  CG        -5.2560   24.2020  -34.4270 C.ar  307  TRP307      0.0003
     57  CD1       -4.0140   24.7400  -34.5140 C.ar  307  TRP307      0.0946
     58  CD2       -5.2240   23.2980  -33.2980 C.ar  307  TRP307      0.0152
     59  NE1       -3.2080   24.2490  -33.5160 N.ar  307  TRP307     -0.2442
     60  CE2       -3.9230   23.3690  -32.7490 C.ar  307  TRP307      0.0810
     61  CE3       -6.1750   22.4590  -32.6860 C.ar  307  TRP307      0.0012
     62  CZ2       -3.5290   22.6070  -31.6370 C.ar  307  TRP307      0.0191
     63  CZ3       -5.7870   21.6960  -31.5870 C.ar  307  TRP307      0.0001
     64  CH2       -4.4680   21.7800  -31.0670 C.ar  307  TRP307      0.0015
     65  N         -9.7110   19.9970  -36.6240 N.3   310  TRP310     -0.1241
     66  CA       -10.0060   19.7150  -35.2080 C.3   310  TRP310      0.1605
     67  C        -11.3120   20.3790  -34.7580 C.2   310  TRP310      0.2264
     68  O        -12.1020   19.7970  -34.0190 O.2   310  TRP310     -0.2867
     69  CB        -8.8530   20.2210  -34.3370 C.3   310  TRP310      0.0550
     70  CG        -9.0320   20.1240  -32.8260 C.ar  310  TRP310      0.0003
     71  CD1       -8.6610   19.0710  -32.0240 C.ar  310  TRP310      0.0946
     72  CD2       -9.5890   21.1240  -31.9410 C.ar  310  TRP310      0.0152
     73  NE1       -8.9430   19.3620  -30.7150 N.ar  310  TRP310     -0.2442
     74  CE2       -9.5180   20.6020  -30.6300 C.ar  310  TRP310      0.0810
     75  CE3      -10.1120   22.4170  -32.1320 C.ar  310  TRP310      0.0012
     76  CZ2       -9.9600   21.3110  -29.5110 C.ar  310  TRP310      0.0191
     77  CZ3      -10.5680   23.1270  -31.0130 C.ar  310  TRP310      0.0001
     78  CH2      -10.4890   22.5700  -29.7200 C.ar  310  TRP310      0.0015
     79  N        -18.7240   22.5500  -24.5800 N.3   320  ILE320     -0.1245
     80  CA       -18.2280   23.9110  -24.3590 C.3   320  ILE320      0.1561
     81  C        -19.0200   24.8990  -25.2080 C.2   320  ILE320      0.2260
     82  O        -19.3340   24.6380  -26.3720 O.2   320  ILE320     -0.2867
     83  CB       -16.6750   23.9860  -24.6110 C.3   320  ILE320      0.0252
     84  CG1      -15.9410   23.1540  -23.5570 C.3   320  ILE320      0.0019
     85  CG2      -16.1260   25.4310  -24.6040 C.3   320  ILE320      0.0019
     86  CD1      -14.6040   22.5940  -24.0170 C.3   320  ILE320      0.0001
     87  N        -18.8250   27.5450  -27.3890 N.3   322  PHE322     -0.1241
     88  CA       -17.8230   28.1100  -28.3140 C.3   322  PHE322      0.1605
     89  C        -18.3150   27.8850  -29.7300 C.2   322  PHE322      0.2264
     90  O        -18.8070   26.8010  -30.0540 O.2   322  PHE322     -0.2867
     91  CB       -16.4800   27.4070  -28.1330 C.3   322  PHE322      0.0534
     92  CG       -15.3400   28.0340  -28.8810 C.ar  322  PHE322     -0.0203
     93  CD1      -14.7470   29.2120  -28.4260 C.ar  322  PHE322     -0.0042
     94  CD2      -14.8110   27.4190  -30.0150 C.ar  322  PHE322     -0.0042
     95  CE1      -13.6660   29.7800  -29.1010 C.ar  322  PHE322     -0.0003
     96  CE2      -13.7200   27.9780  -30.7020 C.ar  322  PHE322     -0.0003
     97  CZ       -13.1450   29.1570  -30.2380 C.ar  322  PHE322     -0.0000
     98  N        -17.5600   26.6850  -32.5930 N.3   324  TYR324     -0.1241
     99  CA       -16.6060   25.8300  -33.3060 C.3   324  TYR324      0.1605
    100  C        -16.6400   25.9030  -34.8400 C.2   324  TYR324      0.2264
    101  O        -15.5840   25.9050  -35.4620 O.2   324  TYR324     -0.2867
    102  CB       -16.7130   24.3730  -32.8370 C.3   324  TYR324      0.0534
    103  CG       -16.1720   24.1850  -31.4410 C.ar  324  TYR324     -0.0201
    104  CD1      -14.7960   24.2300  -31.1940 C.ar  324  TYR324     -0.0009
    105  CD2      -17.0230   23.9910  -30.3710 C.ar  324  TYR324     -0.0009
    106  CE1      -14.2900   24.0740  -29.9050 C.ar  324  TYR324      0.0417
    107  CE2      -16.5310   23.8310  -29.0840 C.ar  324  TYR324      0.0417
    108  CZ       -15.1670   23.8740  -28.8660 C.ar  324  TYR324      0.1957
    109  OH       -14.6860   23.7330  -27.5940 O.3   324  TYR324     -0.2866
    110  N        -15.1010   29.1390  -36.0370 N.3   327  TYR327     -0.1241
    111  CA       -13.6360   29.1090  -35.7830 C.3   327  TYR327      0.1605
    112  C        -12.9680   28.3020  -36.8810 C.2   327  TYR327      0.2264
    113  O        -11.9670   28.7340  -37.4410 O.2   327  TYR327     -0.2867
    114  CB       -13.3100   28.5100  -34.3960 C.3   327  TYR327      0.0534
    115  CG       -11.8110   28.4840  -34.0680 C.ar  327  TYR327     -0.0201
    116  CD1      -11.0960   29.6760  -33.8740 C.ar  327  TYR327     -0.0009
    117  CD2      -11.1100   27.2770  -33.9950 C.ar  327  TYR327     -0.0009
    118  CE1       -9.7440   29.6690  -33.5990 C.ar  327  TYR327      0.0417
    119  CE2       -9.7280   27.2440  -33.7110 C.ar  327  TYR327      0.0417
    120  CZ        -9.0700   28.4570  -33.5180 C.ar  327  TYR327      0.1957
    121  OH        -7.7390   28.4760  -33.2380 O.3   327  TYR327     -0.2866
@<TRIPOS>BOND
     1   113   112    2
     2    51    52    1
     3   112   111    1
     4    53    52    1
     5    53    54    2
     6    65    66    1
     7    52    55    1
     8   110   111    1
     9   111   114    1
    10   101   100    2
    11    55    56    1
    12    66    67    1
    13    66    69    1
    14   100    99    1
    15    67    68    2
    16    57    56   ar
    17    57    59   ar
    18    56    58   ar
    19   114   115    1
    20    69    70    1
    21   115   117   ar
    22   115   116   ar
    23   117   119   ar
    24   116   118   ar
    25   119   120   ar
    26   118   120   ar
    27   120   121    1
    28    59    60   ar
    29    30    31    1
    30    99   102    1
    31    99    98    1
    32    58    60   ar
    33    58    61   ar
    34   102   103    1
    35    70    71   ar
    36    70    72   ar
    37    60    62   ar
    38    61    63   ar
    39    31    32    1
    40    31    34    1
    41    75    72   ar
    42    75    77   ar
    43    71    73   ar
    44    72    74   ar
    45    32    33    2
    46    62    64   ar
    47    63    64   ar
    48   103   104   ar
    49   103   105   ar
    50   104   106   ar
    51    35    34    1
    52    35    36    1
    53    77    78   ar
    54    38    36   ar
    55    50    49    1
    56    36    37   ar
    57    73    74   ar
    58    96    97   ar
    59    96    94   ar
    60    74    76   ar
    61   105   107   ar
    62    97    95   ar
    63    47    49   ar
    64    47    45   ar
    65    90    89    2
    66    94    92   ar
    67    49    48   ar
    68   106   108   ar
    69    89    88    1
    70    78    76   ar
    71    95    93   ar
    72   107   108   ar
    73    45    44   ar
    74     1     2    1
    75    21    20    2
    76    92    93   ar
    77    92    91    1
    78   108   109    1
    79    25    27   ar
    80    25    23   ar
    81    48    46   ar
    82    27    28   ar
    83     2     3    1
    84     2     5    1
    85    88    91    1
    86    88    87    1
    87     7     6   ar
    88    22    23    1
    89    22    19    1
    90    23    24   ar
    91    28    29    1
    92    28    26   ar
    93    44    46   ar
    94    44    43    1
    95     3     4    2
    96    20    19    1
    97     5     6    1
    98    13    10    1
    99    13    14    1
   100    39    40    1
   101     6     8   ar
   102    24    26   ar
   103    19    18    1
   104    10     9    1
   105    10    11    1
   106    40    43    1
   107    40    41    1
   108    16    15    2
   109    14    15    1
   110    82    81    2
   111    15    17   am
   112    11    12    2
   113    41    42    2
   114    81    80    1
   115    83    85    1
   116    83    80    1
   117    83    84    1
   118    79    80    1
   119    86    84    1
