@<TRIPOS>MOLECULE
tmp/2ckpA00.pdb
 171 161 0 0 0
SMALL
GASTEIGER

@<TRIPOS>ATOM
      1  N        -24.9630   12.9760  -13.8240 N.3    31  ILE31      -0.1231
      2  CA       -24.2840   13.8030  -12.8140 C.3    31  ILE31       0.1692
      3  C        -24.7910   15.2470  -12.8540 C.2    31  ILE31       0.2591
      4  O        -25.1400   15.8280  -11.8200 O.2    31  ILE31      -0.2718
      5  CB       -22.7510   13.8120  -13.0170 C.3    31  ILE31       0.0266
      6  CG1      -22.1920   12.3880  -13.0260 C.3    31  ILE31       0.0019
      7  CG2      -22.0620   14.6640  -11.9420 C.3    31  ILE31       0.0020
      8  CD1      -20.7930   12.3090  -13.5830 C.3    31  ILE31       0.0001
      9  N        -24.7840   15.8220  -14.0540 N.am   32  ARG32      -0.1980
     10  CA       -25.4280   17.0990  -14.3390 C.3    32  ARG32       0.1597
     11  C        -26.3500   16.9030  -15.5470 C.2    32  ARG32       0.2287
     12  O        -25.9630   16.2770  -16.5370 O.2    32  ARG32      -0.2864
     13  CB       -24.3860   18.1950  -14.6160 C.3    32  ARG32       0.0334
     14  CG       -24.1050   19.1840  -13.4650 C.3    32  ARG32       0.0492
     15  CD       -24.9940   20.4260  -13.5640 C.3    32  ARG32       0.2205
     16  NE       -24.8450   21.1340  -14.8400 N.pl3  32  ARG32      -0.0865
     17  CZ       -25.8400   21.7370  -15.4920 C.cat  32  ARG32       0.5346
     18  NH1      -27.0730   21.7080  -14.9990 N.pl3  32  ARG32       0.1354
     19  NH2      -25.6130   22.3600  -16.6470 N.pl3  32  ARG32       0.1354
     20  N        -25.0890   21.3260  -21.6720 N.3    37  ASN37      -0.1240
     21  CA       -24.0280   20.4420  -21.1580 C.3    37  ASN37       0.1653
     22  C        -24.5710   19.3870  -20.1840 C.2    37  ASN37       0.2266
     23  O        -24.7240   19.6610  -18.9860 O.2    37  ASN37      -0.2867
     24  CB       -22.8890   21.2330  -20.4960 C.3    37  ASN37       0.1155
     25  CG       -21.5770   21.1740  -21.2880 C.2    37  ASN37       0.2627
     26  OD1      -21.5740   21.1120  -22.5170 O.2    37  ASN37      -0.2716
     27  ND2      -20.4560   21.2070  -20.5730 N.am   37  ASN37      -0.0877
     28  N        -23.9480   15.8500  -18.1740 N.3    39  LEU39      -0.1245
     29  CA       -22.8010   15.0830  -17.6690 C.3    39  LEU39       0.1561
     30  C        -23.1670   13.6500  -17.2420 C.2    39  LEU39       0.2260
     31  O        -24.2840   13.3980  -16.7740 O.2    39  LEU39      -0.2867
     32  CB       -22.0800   15.8420  -16.5420 C.3    39  LEU39       0.0270
     33  CG       -21.6000   17.2810  -16.8060 C.3    39  LEU39       0.0019
     34  CD1      -20.7410   17.7760  -15.6620 C.3    39  LEU39       0.0001
     35  CD2      -20.8360   17.4170  -18.1070 C.3    39  LEU39       0.0001
     36  N        -15.9850   10.4880  -18.0510 N.3    50  LEU50      -0.1245
     37  CA       -17.0150   11.5250  -17.9540 C.3    50  LEU50       0.1561
     38  C        -17.5360   11.9050  -19.3320 C.2    50  LEU50       0.2260
     39  O        -16.8130   12.5160  -20.1220 O.2    50  LEU50      -0.2867
     40  CB       -16.4610   12.7620  -17.2220 C.3    50  LEU50       0.0270
     41  CG       -17.2460   14.0660  -16.9860 C.3    50  LEU50       0.0019
     42  CD1      -17.2350   15.0090  -18.2020 C.3    50  LEU50       0.0001
     43  CD2      -18.6690   13.8140  -16.4910 C.3    50  LEU50       0.0001
     44  N        -19.6170   14.2030  -21.7000 N.3    52  ARG52      -0.1245
     45  CA       -20.1000   15.5810  -21.6830 C.3    52  ARG52       0.1563
     46  C        -20.6690   16.0020  -23.0270 C.2    52  ARG52       0.2260
     47  O        -19.9320   16.4680  -23.8960 O.2    52  ARG52      -0.2867
     48  CB       -18.9690   16.5250  -21.2840 C.3    52  ARG52       0.0307
     49  CG       -19.3390   18.0080  -21.2960 C.3    52  ARG52       0.0489
     50  CD       -18.1030   18.8840  -21.2070 C.3    52  ARG52       0.2205
     51  NE       -17.3010   18.5650  -20.0300 N.pl3  52  ARG52      -0.0865
     52  CZ       -17.3300   19.2440  -18.8880 C.cat  52  ARG52       0.5346
     53  NH1      -18.1260   20.3020  -18.7570 N.pl3  52  ARG52       0.1354
     54  NH2      -16.5440   18.8690  -17.8790 N.pl3  52  ARG52       0.1354
     55  N         -8.2160   17.3690  -17.0060 N.3    73  PRO73      -0.2116
     56  CA        -8.4860   15.9550  -17.2740 C.3    73  PRO73       0.1372
     57  C         -7.9450   15.5310  -18.6380 C.2    73  PRO73       0.2244
     58  O         -7.7360   16.3750  -19.5150 O.2    73  PRO73      -0.2868
     59  CB       -10.0210   15.8720  -17.2640 C.3    73  PRO73       0.0268
     60  CG       -10.5110   17.2800  -17.3410 C.3    73  PRO73       0.0207
     61  CD        -9.4470   18.1380  -16.7530 C.3    73  PRO73       0.0892
     62  N        -14.1550   12.2640  -21.3210 N.3    85  GLU85      -0.1231
     63  CA       -13.2200   13.0310  -20.5370 C.3    85  GLU85       0.1699
     64  C        -12.8970   12.1950  -19.3180 C.2    85  GLU85       0.2592
     65  O        -13.7890   11.6190  -18.7080 O.2    85  GLU85      -0.2718
     66  CB       -13.9060   14.3430  -20.1490 C.3    85  GLU85       0.0402
     67  CG       -13.2000   15.2410  -19.1460 C.3    85  GLU85       0.1161
     68  CD       -13.8090   16.6350  -19.1440 C.2    85  GLU85       0.3649
     69  OE1      -14.3210   17.0240  -20.2230 O.co2  85  GLU85      -0.2457
     70  OE2      -13.7800   17.3410  -18.0950 O.co2  85  GLU85      -0.2457
     71  N        -11.6160   12.1130  -18.9830 N.am   86  GLN86      -0.1966
     72  CA       -11.1750   11.4620  -17.7560 C.3    86  GLN86       0.1733
     73  C        -12.0570   11.8460  -16.5690 C.2    86  GLN86       0.2616
     74  O        -12.3250   13.0280  -16.3360 O.2    86  GLN86      -0.2715
     75  CB        -9.7140   11.8330  -17.4620 C.3    86  GLN86       0.0408
     76  CG        -9.2320   11.5100  -16.0390 C.3    86  GLN86       0.0908
     77  CD        -7.7850   11.8990  -15.8030 C.2    86  GLN86       0.2608
     78  OE1       -7.2620   12.8170  -16.4380 O.2    86  GLN86      -0.2717
     79  NE2       -7.1300   11.2020  -14.8860 N.am   86  GLN86      -0.0878
     80  N        -12.5170   10.8370  -15.8360 N.am   87  PHE87      -0.1960
     81  CA       -13.1890   11.0700  -14.5740 C.3    87  PHE87       0.1771
     82  C        -12.1520   11.3150  -13.4840 C.2    87  PHE87       0.2619
     83  O        -11.2020   10.5540  -13.3430 O.2    87  PHE87      -0.2715
     84  CB       -14.1040    9.9020  -14.1830 C.3    87  PHE87       0.0574
     85  CG       -15.2030   10.3000  -13.2230 C.ar   87  PHE87      -0.0200
     86  CD1      -16.4880   10.5710  -13.6900 C.ar   87  PHE87      -0.0042
     87  CD2      -14.9450   10.4470  -11.8580 C.ar   87  PHE87      -0.0042
     88  CE1      -17.4950   10.9540  -12.8150 C.ar   87  PHE87      -0.0003
     89  CE2      -15.9510   10.8430  -10.9810 C.ar   87  PHE87      -0.0003
     90  CZ       -17.2250   11.0900  -11.4610 C.ar   87  PHE87      -0.0000
     91  N        -12.3380   12.3860  -12.7250 N.am   88  ILE88      -0.1977
     92  CA       -11.4950   12.6970  -11.5840 C.3    88  ILE88       0.1596
     93  C        -12.4470   12.8700  -10.4070 C.2    88  ILE88       0.2287
     94  O        -13.2330   13.8150  -10.3970 O.2    88  ILE88      -0.2864
     95  CB       -10.7340   14.0390  -11.8030 C.3    88  ILE88       0.0276
     96  CG1      -10.2820   14.1930  -13.2560 C.3    88  ILE88       0.0022
     97  CG2       -9.5560   14.1780  -10.8460 C.3    88  ILE88       0.0022
     98  CD1      -10.1700   15.6340  -13.6890 C.3    88  ILE88       0.0001
     99  N        -14.1600   14.4760   -7.9270 N.3    90  SER90      -0.1202
    100  CA       -14.0850   15.9250   -7.7680 C.3    90  SER90       0.2020
    101  C        -15.4470   16.6140   -7.6400 C.2    90  SER90       0.2619
    102  O        -16.4940   16.0090   -7.8750 O.2    90  SER90      -0.2717
    103  CB       -13.3450   16.5410   -8.9590 C.3    90  SER90       0.2103
    104  OG       -14.0910   16.3980  -10.1570 O.3    90  SER90      -0.2182
    105  N        -15.4100   17.8990   -7.2980 N.am   91  ARG91      -0.1965
    106  CA       -16.6120   18.7020   -7.1770 C.3    91  ARG91       0.1729
    107  C        -16.3610   20.1870   -7.4200 C.2    91  ARG91       0.2616
    108  O        -15.2630   20.6980   -7.2010 O.2    91  ARG91      -0.2715
    109  CB       -17.2450   18.4980   -5.8040 C.3    91  ARG91       0.0348
    110  CG       -16.3760   18.8990   -4.6270 C.3    91  ARG91       0.0492
    111  CD       -17.1900   18.9600   -3.3600 C.3    91  ARG91       0.2205
    112  NE       -16.3860   19.4100   -2.2410 N.pl3  91  ARG91      -0.0865
    113  CZ       -16.1840   20.6860   -1.9280 C.cat  91  ARG91       0.5346
    114  NH1      -16.7300   21.6590   -2.6530 N.pl3  91  ARG91       0.1354
    115  NH2      -15.4340   20.9970   -0.8780 N.pl3  91  ARG91       0.1354
    116  N        -17.3950   20.8780   -7.8890 N.am   92  ARG92      -0.1977
    117  CA       -17.3280   22.3270   -8.0030 C.3    92  ARG92       0.1597
    118  C        -17.0690   22.8250   -6.5840 C.2    92  ARG92       0.2287
    119  O        -17.5140   22.1920   -5.6250 O.2    92  ARG92      -0.2864
    120  CB       -18.6430   22.8870   -8.5730 C.3    92  ARG92       0.0334
    121  CG       -18.8370   22.4770  -10.0240 C.3    92  ARG92       0.0492
    122  CD       -19.9810   23.0960  -10.6450 C.3    92  ARG92       0.2205
    123  NE       -20.0880   22.7360  -12.0750 N.pl3  92  ARG92      -0.0865
    124  CZ       -21.2240   22.6690  -12.7070 C.cat  92  ARG92       0.5346
    125  NH1      -22.3930   23.0000  -12.1050 N.pl3  92  ARG92       0.1354
    126  NH2      -21.1740   22.3900  -14.0200 N.pl3  92  ARG92       0.1354
    127  N        -17.8330   27.8210   -9.8310 N.3   182  GLY182     -0.1210
    128  CA       -18.3140   26.6760  -10.6010 C.3   182  GLY182      0.1956
    129  C        -17.4410   26.2140  -11.7720 C.2   182  GLY182      0.2611
    130  O        -17.7780   25.2350  -12.4610 O.2   182  GLY182     -0.2717
    131  N        -16.3310   26.9130  -12.0180 N.am  183  ASN183     -0.1974
    132  CA       -15.3820   26.5010  -13.0620 C.3   183  ASN183      0.1688
    133  C        -14.0610   26.0070  -12.5090 C.2   183  ASN183      0.2292
    134  O        -13.1730   25.6410  -13.2800 O.2   183  ASN183     -0.2864
    135  CB       -15.1320   27.6160  -14.0850 C.3   183  ASN183      0.1181
    136  CG       -16.2980   27.8060  -15.0410 C.2   183  ASN183      0.2629
    137  OD1      -17.1000   26.9030  -15.2300 O.2   183  ASN183     -0.2716
    138  ND2      -16.3950   28.9850  -15.6420 N.am  183  ASN183     -0.0877
    139  N        -12.5270   23.0410  -10.2330 N.3   185  LEU185     -0.1245
    140  CA       -12.7450   21.7470   -9.6060 C.3   185  LEU185      0.1561
    141  C        -11.8720   21.6180   -8.3660 C.2   185  LEU185      0.2260
    142  O        -10.7510   22.1130   -8.3560 O.2   185  LEU185     -0.2867
    143  CB       -12.4470   20.6130  -10.5890 C.3   185  LEU185      0.0270
    144  CG       -13.4680   20.2890  -11.6800 C.3   185  LEU185      0.0019
    145  CD1      -13.1490   18.9100  -12.2540 C.3   185  LEU185      0.0001
    146  CD2      -14.9110   20.3270  -11.1610 C.3   185  LEU185      0.0001
    147  N        -11.3510   24.5880  -14.9590 N.3   188  ILE188     -0.1231
    148  CA       -12.0120   23.9740  -16.1160 C.3   188  ILE188      0.1692
    149  C        -13.0040   24.8860  -16.8170 C.2   188  ILE188      0.2592
    150  O        -13.3760   25.9370  -16.2840 O.2   188  ILE188     -0.2718
    151  CB       -12.7640   22.6790  -15.7150 C.3   188  ILE188      0.0266
    152  CG1      -14.0140   23.0000  -14.8730 C.3   188  ILE188      0.0019
    153  CG2      -11.8080   21.7140  -15.0110 C.3   188  ILE188      0.0020
    154  CD1      -15.0310   21.8760  -14.7650 C.3   188  ILE188      0.0001
    155  N        -13.4400   24.4490  -18.0000 N.am  189  ASP189     -0.1974
    156  CA       -14.4900   25.0990  -18.8040 C.3   189  ASP189      0.1709
    157  C        -14.0240   26.4160  -19.3850 C.2   189  ASP189      0.2293
    158  O        -13.9390   27.4120  -18.6910 O.2   189  ASP189     -0.2864
    159  CB       -15.8000   25.2550  -18.0240 C.3   189  ASP189      0.1436
    160  CG       -16.3360   23.9180  -17.4770 C.2   189  ASP189      0.3671
    161  OD1      -15.8140   22.8200  -17.8350 O.co2 189  ASP189     -0.2456
    162  OD2      -17.3010   23.9740  -16.6790 O.co2 189  ASP189     -0.2456
    163  N        -15.4060   28.0680  -22.1400 N.3   191  GLU191     -0.1245
    164  CA       -16.3990   28.5740  -23.0860 C.3   191  GLU191      0.1567
    165  C        -15.9480   29.9320  -23.5960 C.2   191  GLU191      0.2260
    166  O        -15.6720   30.0800  -24.7770 O.2   191  GLU191     -0.2867
    167  CB       -17.8130   28.6380  -22.4670 C.3   191  GLU191      0.0388
    168  CG       -18.6090   27.3330  -22.4860 C.3   191  GLU191      0.1160
    169  CD       -18.4170   26.4290  -21.2740 C.2   191  GLU191      0.3649
    170  OE1      -17.7190   26.7930  -20.3510 O.co2 191  GLU191     -0.2457
    171  OE2      -19.0320   25.3230  -21.3390 O.co2 191  GLU191     -0.2457
@<TRIPOS>BOND
     1   166   165    2
     2    47    46    2
     3   165   164    1
     4   164   167    1
     5   164   163    1
     6    46    45    1
     7    26    25    2
     8   168   167    1
     9   168   169    1
    10    44    45    1
    11    45    48    1
    12    20    21    1
    13   171   169   ar
    14    62    63    1
    15    49    48    1
    16    49    50    1
    17    25    27   am
    18    25    24    1
    19   169   170   ar
    20    50    51    1
    21    21    24    1
    22    21    22    1
    23    63    66    1
    24    63    64    1
    25    69    68   ar
    26    22    23    2
    27    66    67    1
    28    39    38    2
    29    51    52    2
    30    58    57    2
    31   157   156    1
    32   157   158    2
    33    38    37    1
    34    64    71   am
    35    64    65    2
    36    67    68    1
    37    68    70   ar
    38    71    72    1
    39    52    53    1
    40    52    54    1
    41   156   159    1
    42   156   155    1
    43    57    56    1
    44    42    41    1
    45    28    29    1
    46    35    33    1
    47    36    37    1
    48   159   160    1
    49   155   149   am
    50    37    40    1
    51   161   160   ar
    52    72    75    1
    53    72    73    1
    54    29    30    1
    55    29    32    1
    56   160   162   ar
    57    75    76    1
    58    60    59    1
    59    60    61    1
    60    56    59    1
    61    56    55    1
    62    30    31    2
    63    40    41    1
    64    55    61    1
    65    41    43    1
    66   149   150    2
    67   149   148    1
    68    33    32    1
    69    33    34    1
    70    19    17    1
    71    73    74    2
    72    73    80   am
    73    12    11    2
    74    78    77    2
    75   148   151    1
    76   148   147    1
    77    76    77    1
    78    80    81    1
    79    77    79   am
    80   151   153    1
    81   151   152    1
    82   138   136   am
    83    11    10    1
    84    17    18    1
    85    17    16    2
    86   137   136    2
    87   136   135    1
    88   152   154    1
    89    16    15    1
    90    13    10    1
    91    13    14    1
    92    81    84    1
    93    81    82    1
    94    10     9    1
    95    84    85    1
    96   135   132    1
    97     9     3   am
    98   126   124    1
    99     1     2    1
   100    86    85   ar
   101    86    88   ar
   102    98    96    1
   103     8     6    1
   104    15    14    1
   105    82    83    2
   106    82    91   am
   107   134   133    2
   108    96    95    1
   109    85    87   ar
   110   132   133    1
   111   132   131    1
   112     6     5    1
   113     5     2    1
   114     5     7    1
   115     3     2    1
   116     3     4    2
   117    88    90   ar
   118    91    92    1
   119   124   125    1
   120   124   123    2
   121   130   129    2
   122   145   144    1
   123   123   122    1
   124   131   129   am
   125    87    89   ar
   126    95    92    1
   127    95    97    1
   128   129   128    1
   129   144   146    1
   130   144   143    1
   131    92    93    1
   132    90    89   ar
   133   122   121    1
   134   128   127    1
   135   143   140    1
   136    93    94    2
   137   139   140    1
   138   104   103    1
   139   121   120    1
   140   140   141    1
   141   103   100    1
   142   120   117    1
   143   141   142    2
   144   117   116    1
   145   117   118    1
   146    99   100    1
   147   116   107   am
   148   102   101    2
   149   100   101    1
   150   101   105   am
   151   107   108    2
   152   107   106    1
   153   105   106    1
   154   106   109    1
   155   118   119    2
   156   109   110    1
   157   110   111    1
   158   111   112    1
   159   114   113    1
   160   112   113    2
   161   113   115    1
