@<TRIPOS>MOLECULE
tmp/2ckqA00.pdb
 137 133 0 0 0
SMALL
GASTEIGER

@<TRIPOS>ATOM
      1  N         24.4610  -20.3540  -13.9120 N.3    34  GLY34      -0.1210
      2  CA        23.3850  -21.3020  -13.6300 C.3    34  GLY34       0.1956
      3  C         23.0130  -22.2510  -14.7540 C.2    34  GLY34       0.2612
      4  O         23.0230  -23.4800  -14.5730 O.2    34  GLY34      -0.2717
      5  N         22.6710  -21.6860  -15.9070 N.am   35  GLY35      -0.1942
      6  CA        22.2290  -22.4740  -17.0510 C.3    35  GLY35       0.2014
      7  C         23.3140  -23.3160  -17.6940 C.2    35  GLY35       0.2639
      8  O         24.4970  -22.9380  -17.7080 O.2    35  GLY35      -0.2714
      9  N         22.8940  -24.4570  -18.2340 N.am   36  LEU36      -0.1963
     10  CA        23.7960  -25.3970  -18.8940 C.3    36  LEU36       0.1728
     11  C         23.6260  -25.4430  -20.4150 C.2    36  LEU36       0.2616
     12  O         24.3530  -26.1720  -21.0930 O.2    36  LEU36      -0.2715
     13  CB        23.6380  -26.7930  -18.2920 C.3    36  LEU36       0.0311
     14  CG        23.8290  -26.9120  -16.7730 C.3    36  LEU36       0.0022
     15  CD1       23.5440  -28.3380  -16.3060 C.3    36  LEU36       0.0001
     16  CD2       25.2290  -26.4280  -16.3170 C.3    36  LEU36       0.0001
     17  N         22.6690  -24.6640  -20.9340 N.am   37  SER37      -0.1950
     18  CA        22.4320  -24.5280  -22.3810 C.3    37  SER37       0.1924
     19  C         22.7680  -23.1100  -22.8580 C.2    37  SER37       0.2314
     20  O         23.5510  -22.9290  -23.7960 O.2    37  SER37      -0.2863
     21  CB        20.9660  -24.8240  -22.7520 C.3    37  SER37       0.2116
     22  OG        20.5000  -26.0570  -22.2430 O.3    37  SER37      -0.2180
     23  N         11.9830  -29.4620  -19.2300 N.3   196  ASP196     -0.1239
     24  CA        13.1290  -29.0900  -18.4210 C.3   196  ASP196      0.1674
     25  C         12.6870  -28.4170  -17.1200 C.2   196  ASP196      0.2266
     26  O         13.2770  -27.4260  -16.6860 O.2   196  ASP196     -0.2867
     27  CB        14.0210  -28.1550  -19.2230 C.3   196  ASP196      0.1410
     28  CG        15.4200  -28.0400  -18.6400 C.2   196  ASP196      0.3668
     29  OD1       15.7400  -28.8230  -17.7170 O.co2 196  ASP196     -0.2456
     30  OD2       16.1940  -27.1630  -19.1030 O.co2 196  ASP196     -0.2456
     31  N         12.9530  -27.7400  -13.9180 N.3   198  GLN198     -0.1245
     32  CA        14.0390  -27.9170  -12.9780 C.3   198  GLN198      0.1566
     33  C         14.0070  -26.7180  -12.0000 C.2   198  GLN198      0.2260
     34  O         13.4230  -25.6790  -12.2960 O.2   198  GLN198     -0.2867
     35  CB        15.3260  -27.9680  -13.8110 C.3   198  GLN198      0.0367
     36  CG        16.6000  -27.8110  -13.0470 C.3   198  GLN198      0.0905
     37  CD        17.5130  -26.8020  -13.6660 C.2   198  GLN198      0.2608
     38  OE1       18.0910  -25.9550  -12.9840 O.2   198  GLN198     -0.2717
     39  NE2       17.6260  -26.8610  -14.9840 N.am  198  GLN198     -0.0878
     40  N         14.7910  -23.3730  -13.2930 N.3   201  ASN201     -0.1240
     41  CA        13.8060  -22.8390  -14.2320 C.3   201  ASN201      0.1653
     42  C         12.4790  -22.5320  -13.5480 C.2   201  ASN201      0.2266
     43  O         11.4420  -22.4030  -14.2130 O.2   201  ASN201     -0.2867
     44  CB        13.5840  -23.8040  -15.4150 C.3   201  ASN201      0.1155
     45  CG        14.8450  -24.0070  -16.2520 C.2   201  ASN201      0.2627
     46  OD1       15.7060  -23.1300  -16.3120 O.2   201  ASN201     -0.2716
     47  ND2       14.9630  -25.1710  -16.8950 N.am  201  ASN201     -0.0877
     48  N         12.7950  -23.4800  -23.5580 N.3   221  GLU221     -0.1231
     49  CA        13.6620  -23.7740  -24.7100 C.3   221  GLU221      0.1699
     50  C         13.4510  -25.1510  -25.3180 C.2   221  GLU221      0.2592
     51  O         13.5390  -25.3130  -26.5380 O.2   221  GLU221     -0.2718
     52  CB        15.1630  -23.6590  -24.3560 C.3   221  GLU221      0.0402
     53  CG        15.5870  -22.4690  -23.4950 C.3   221  GLU221      0.1161
     54  CD        15.0480  -21.1240  -23.9610 C.2   221  GLU221      0.3649
     55  OE1       14.9490  -20.8820  -25.1970 O.co2 221  GLU221     -0.2457
     56  OE2       14.7310  -20.3020  -23.0660 O.co2 221  GLU221     -0.2457
     57  N         13.2130  -26.1380  -24.4550 N.am  222  TYR222     -0.1976
     58  CA        13.1260  -27.5480  -24.8450 C.3   222  TYR222      0.1639
     59  C         11.6840  -28.0220  -25.0230 C.2   222  TYR222      0.2290
     60  O         11.4270  -29.1790  -25.3470 O.2   222  TYR222     -0.2864
     61  CB        13.8500  -28.4180  -23.8120 C.3   222  TYR222      0.0560
     62  CG        15.3420  -28.2240  -23.8220 C.ar  222  TYR222     -0.0198
     63  CD1       16.1210  -28.8360  -24.7890 C.ar  222  TYR222     -0.0009
     64  CD2       15.9800  -27.4330  -22.8600 C.ar  222  TYR222     -0.0009
     65  CE1       17.4850  -28.6700  -24.8170 C.ar  222  TYR222      0.0417
     66  CE2       17.3510  -27.2580  -22.8840 C.ar  222  TYR222      0.0417
     67  CZ        18.0940  -27.8840  -23.8720 C.ar  222  TYR222      0.1957
     68  OH        19.4630  -27.7600  -23.9330 O.3   222  TYR222     -0.2866
     69  N         10.7230  -36.3590  -15.4970 N.3   234  ASN234     -0.1240
     70  CA        11.9120  -35.5130  -15.5620 C.3   234  ASN234      0.1653
     71  C         11.9950  -34.6390  -14.3170 C.2   234  ASN234      0.2266
     72  O         13.0760  -34.4430  -13.7530 O.2   234  ASN234     -0.2867
     73  CB        11.9140  -34.6290  -16.8120 C.3   234  ASN234      0.1155
     74  CG        13.1680  -33.7640  -16.9150 C.2   234  ASN234      0.2627
     75  OD1       14.2430  -34.2470  -17.2980 O.2   234  ASN234     -0.2716
     76  ND2       13.0390  -32.4760  -16.5740 N.am  234  ASN234     -0.0877
     77  N         14.8760  -34.4920  -11.1400 N.3   238  GLU238     -0.1245
     78  CA        15.5190  -33.2440  -10.7290 C.3   238  GLU238      0.1567
     79  C         15.6930  -33.0520   -9.2190 C.2   238  GLU238      0.2260
     80  O         16.4660  -32.1900   -8.7860 O.2   238  GLU238     -0.2867
     81  CB        14.8370  -32.0310  -11.3660 C.3   238  GLU238      0.0388
     82  CG        15.3090  -31.7940  -12.8000 C.3   238  GLU238      0.1160
     83  CD        16.8570  -31.6460  -12.9110 C.2   238  GLU238      0.3649
     84  OE1       17.5350  -31.3010  -11.8910 O.co2 238  GLU238     -0.2457
     85  OE2       17.3750  -31.8770  -14.0240 O.co2 238  GLU238     -0.2457
     86  N         22.8170  -28.2420   -9.2210 N.3   243  TYR243     -0.1241
     87  CA        23.7580  -27.6410  -10.1650 C.3   243  TYR243      0.1605
     88  C         24.4950  -26.4090   -9.6090 C.2   243  TYR243      0.2264
     89  O         25.1650  -25.6840  -10.3520 O.2   243  TYR243     -0.2867
     90  CB        23.0280  -27.2960  -11.4630 C.3   243  TYR243      0.0534
     91  CG        22.2450  -28.4510  -12.0660 C.ar  243  TYR243     -0.0201
     92  CD1       22.9030  -29.5340  -12.6490 C.ar  243  TYR243     -0.0009
     93  CD2       20.8450  -28.4460  -12.0670 C.ar  243  TYR243     -0.0009
     94  CE1       22.1980  -30.5890  -13.2180 C.ar  243  TYR243      0.0417
     95  CE2       20.1220  -29.4930  -12.6300 C.ar  243  TYR243      0.0417
     96  CZ        20.8040  -30.5550  -13.2010 C.ar  243  TYR243      0.1957
     97  OH        20.1130  -31.5900  -13.7540 O.3   243  TYR243     -0.2866
     98  N         18.9960  -36.9090  -21.1530 N.3   309  TRP309     -0.1241
     99  CA        19.9240  -35.8970  -20.6690 C.3   309  TRP309      0.1605
    100  C         21.3510  -36.4430  -20.5900 C.2   309  TRP309      0.2264
    101  O         22.3060  -35.6970  -20.7780 O.2   309  TRP309     -0.2867
    102  CB        19.4660  -35.2360  -19.3650 C.3   309  TRP309      0.0550
    103  CG        18.1730  -34.4380  -19.4820 C.ar  309  TRP309      0.0003
    104  CD1       17.0040  -34.6890  -18.8210 C.ar  309  TRP309      0.0946
    105  CD2       17.9190  -33.2910  -20.3150 C.ar  309  TRP309      0.0152
    106  NE1       16.0400  -33.7760  -19.1810 N.ar  309  TRP309     -0.2442
    107  CE2       16.5690  -32.9050  -20.0940 C.ar  309  TRP309      0.0810
    108  CE3       18.6960  -32.5490  -21.2170 C.ar  309  TRP309      0.0012
    109  CZ2       15.9810  -31.8050  -20.7300 C.ar  309  TRP309      0.0191
    110  CZ3       18.1110  -31.4510  -21.8650 C.ar  309  TRP309      0.0001
    111  CH2       16.7620  -31.0900  -21.6170 C.ar  309  TRP309      0.0015
    112  N         22.5180  -35.9610  -24.2340 N.3   312  TRP312     -0.1241
    113  CA        22.6960  -34.5100  -24.3530 C.3   312  TRP312      0.1605
    114  C         24.0460  -34.0820  -23.7760 C.2   312  TRP312      0.2264
    115  O         24.7960  -33.3350  -24.4090 O.2   312  TRP312     -0.2867
    116  CB        21.5560  -33.8220  -23.6190 C.3   312  TRP312      0.0550
    117  CG        21.6070  -32.3180  -23.4670 C.ar  312  TRP312      0.0003
    118  CD1       21.0560  -31.3810  -24.3090 C.ar  312  TRP312      0.0946
    119  CD2       22.1740  -31.5830  -22.3720 C.ar  312  TRP312      0.0152
    120  NE1       21.2590  -30.1150  -23.8100 N.ar  312  TRP312     -0.2442
    121  CE2       21.9490  -30.2100  -22.6280 C.ar  312  TRP312      0.0810
    122  CE3       22.8540  -31.9490  -21.2060 C.ar  312  TRP312      0.0012
    123  CZ2       22.3820  -29.2100  -21.7580 C.ar  312  TRP312      0.0191
    124  CZ3       23.2860  -30.9520  -20.3380 C.ar  312  TRP312      0.0001
    125  CH2       23.0480  -29.6040  -20.6220 C.ar  312  TRP312      0.0015
    126  N         28.5500  -35.9470  -15.5940 N.3   329  TYR329     -0.1241
    127  CA        27.0920  -35.8200  -15.5000 C.3   329  TYR329      0.1605
    128  C         26.3600  -36.8790  -16.3360 C.2   329  TYR329      0.2264
    129  O         25.3940  -37.4970  -15.8590 O.2   329  TYR329     -0.2867
    130  CB        26.6230  -34.4050  -15.8690 C.3   329  TYR329      0.0534
    131  CG        25.1040  -34.1920  -15.7310 C.ar  329  TYR329     -0.0201
    132  CD1       24.4910  -34.1050  -14.4720 C.ar  329  TYR329     -0.0009
    133  CD2       24.2930  -34.0950  -16.8580 C.ar  329  TYR329     -0.0009
    134  CE1       23.1060  -33.9310  -14.3430 C.ar  329  TYR329      0.0417
    135  CE2       22.9160  -33.9170  -16.7470 C.ar  329  TYR329      0.0417
    136  CZ        22.3250  -33.8300  -15.4900 C.ar  329  TYR329      0.1957
    137  OH        20.9630  -33.6560  -15.3990 O.3   329  TYR329     -0.2866
@<TRIPOS>BOND
     1    51    50    2
     2    60    59    2
     3    50    49    1
     4    50    57   am
     5    55    54   ar
     6    59    58    1
     7    58    57    1
     8    58    61    1
     9    65    63   ar
    10    65    67   ar
    11    63    62   ar
    12    49    52    1
    13    49    48    1
    14   115   114    2
    15    52    53    1
    16   113   112    1
    17   113   114    1
    18   113   116    1
    19   118   120   ar
    20   118   117   ar
    21    54    53    1
    22    54    56   ar
    23    68    67    1
    24    67    66   ar
    25    62    61    1
    26    62    64   ar
    27   120   121   ar
    28    20    19    2
    29   116   117    1
    30   117   119   ar
    31    66    64   ar
    32    19    18    1
    33    21    18    1
    34    21    22    1
    35   121   119   ar
    36   121   123   ar
    37    18    17    1
    38   119   122   ar
    39   110   111   ar
    40   110   108   ar
    41   123   125   ar
    42   111   109   ar
    43   108   105   ar
    44   122   124   ar
    45    98    99    1
    46    12    11    2
    47    17    11   am
    48   101   100    2
    49   109   107   ar
    50    99   100    1
    51    99   102    1
    52   125   124   ar
    53    11    10    1
    54   105   107   ar
    55   105   103   ar
    56   107   106   ar
    57   103   102    1
    58   103   104   ar
    59    23    24    1
    60    27    28    1
    61    27    24    1
    62   106   104   ar
    63    30    28   ar
    64    10    13    1
    65    10     9    1
    66    28    29   ar
    67    24    25    1
    68    13    14    1
    69     9     7   am
    70     8     7    2
    71     7     6    1
    72    75    74    2
    73    25    26    2
    74     6     5    1
    75    74    73    1
    76    74    76   am
    77    47    45   am
    78   133   135   ar
    79   133   131   ar
    80    73    70    1
    81    14    16    1
    82    14    15    1
    83   135   136   ar
    84   128   129    2
    85   128   127    1
    86    46    45    2
    87    45    44    1
    88     5     3   am
    89   130   131    1
    90   130   127    1
    91   131   132   ar
    92   126   127    1
    93    70    69    1
    94    70    71    1
    95   136   137    1
    96   136   134   ar
    97    44    41    1
    98    39    37   am
    99     3     4    2
   100     3     2    1
   101   132   134   ar
   102    71    72    2
   103    41    42    1
   104    41    40    1
   105    43    42    2
   106    85    83   ar
   107    31    32    1
   108     1     2    1
   109    35    36    1
   110    35    32    1
   111    97    96    1
   112    37    36    1
   113    37    38    2
   114    94    96   ar
   115    94    92   ar
   116    96    95   ar
   117    32    33    1
   118    83    82    1
   119    83    84   ar
   120    82    81    1
   121    92    91   ar
   122    95    93   ar
   123    34    33    2
   124    93    91   ar
   125    91    90    1
   126    90    87    1
   127    81    78    1
   128    77    78    1
   129    78    79    1
   130    89    88    2
   131    87    88    1
   132    87    86    1
   133    79    80    2
