@<TRIPOS>MOLECULE
tmp/2ckrB00.pdb
 237 236 0 0 0
SMALL
GASTEIGER

@<TRIPOS>ATOM
      1  N         36.8730   -6.3860   35.6290 N.3    33  HIS33      -0.1241
      2  CA        36.8140   -6.9030   36.9910 C.3    33  HIS33       0.1621
      3  C         38.2580   -6.8840   37.5250 C.2    33  HIS33       0.2264
      4  O         39.1760   -6.4410   36.8250 O.2    33  HIS33      -0.2867
      5  CB        36.2380   -8.3260   36.9740 C.3    33  HIS33       0.0745
      6  CG        35.5150   -8.7100   38.2280 C.ar   33  HIS33       0.0817
      7  ND1       34.1830   -9.0640   38.2270 N.ar   33  HIS33      -0.2268
      8  CD2       35.9340   -8.8300   39.5090 C.ar   33  HIS33       0.1154
      9  CE1       33.8130   -9.3740   39.4570 C.ar   33  HIS33       0.1986
     10  NE2       34.8560   -9.2490   40.2520 N.ar   33  HIS33      -0.2212
     11  N         41.7440  -11.9020   39.4320 N.3    37  TRP37      -0.1227
     12  CA        40.7850  -12.9780   39.1620 C.3    37  TRP37       0.1737
     13  C         40.4800  -13.1530   37.6850 C.2    37  TRP37       0.2595
     14  O         40.2160  -14.2630   37.2550 O.2    37  TRP37      -0.2718
     15  CB        39.4610  -12.7250   39.8870 C.3    37  TRP37       0.0564
     16  CG        39.5590  -12.7040   41.3730 C.ar   37  TRP37       0.0003
     17  CD1       40.2710  -13.5550   42.1740 C.ar   37  TRP37       0.0946
     18  CD2       38.9150  -11.7790   42.2440 C.ar   37  TRP37       0.0152
     19  NE1       40.0990  -13.2130   43.4950 N.ar   37  TRP37      -0.2442
     20  CE2       39.2730  -12.1220   43.5630 C.ar   37  TRP37       0.0810
     21  CE3       38.0550  -10.6910   42.0440 C.ar   37  TRP37       0.0012
     22  CZ2       38.8110  -11.4170   44.6700 C.ar   37  TRP37       0.0191
     23  CZ3       37.6080   -9.9840   43.1440 C.ar   37  TRP37       0.0001
     24  CH2       37.9850  -10.3560   44.4430 C.ar   37  TRP37       0.0015
     25  N         40.4880  -12.0650   36.9160 N.am   38  PHE38      -0.1976
     26  CA        39.9610  -12.0900   35.5460 C.3    38  PHE38       0.1639
     27  C         40.9580  -11.5580   34.5250 C.2    38  PHE38       0.2290
     28  O         40.5760  -11.0150   33.4930 O.2    38  PHE38      -0.2864
     29  CB        38.6040  -11.3690   35.4780 C.3    38  PHE38       0.0560
     30  CG        37.5340  -12.0630   36.2820 C.ar   38  PHE38      -0.0200
     31  CD1       36.8940  -13.1800   35.7720 C.ar   38  PHE38      -0.0042
     32  CD2       37.2260  -11.6530   37.5680 C.ar   38  PHE38      -0.0042
     33  CE1       35.9390  -13.8540   36.5110 C.ar   38  PHE38      -0.0003
     34  CE2       36.2840  -12.3290   38.3110 C.ar   38  PHE38      -0.0003
     35  CZ        35.6350  -13.4270   37.7840 C.ar   38  PHE38      -0.0000
     36  N         42.6560   -4.7100   42.3880 N.3    64  TYR64      -0.1241
     37  CA        42.4810   -4.8800   43.8310 C.3    64  TYR64       0.1605
     38  C         43.8390   -4.8690   44.5200 C.2    64  TYR64       0.2264
     39  O         44.8380   -5.2350   43.9290 O.2    64  TYR64      -0.2867
     40  CB        41.7950   -6.2030   44.1600 C.3    64  TYR64       0.0534
     41  CG        40.2810   -6.2470   44.0160 C.ar   64  TYR64      -0.0201
     42  CD1       39.6840   -6.2070   42.7710 C.ar   64  TYR64      -0.0009
     43  CD2       39.4560   -6.3890   45.1300 C.ar   64  TYR64      -0.0009
     44  CE1       38.3010   -6.2910   42.6300 C.ar   64  TYR64       0.0417
     45  CE2       38.0790   -6.4750   45.0020 C.ar   64  TYR64       0.0417
     46  CZ        37.5070   -6.4280   43.7470 C.ar   64  TYR64       0.1957
     47  OH        36.1400   -6.5110   43.5840 O.3    64  TYR64      -0.2866
     48  N         42.4700   -8.9550   48.7910 N.3    67  GLU67      -0.1245
     49  CA        41.7280   -9.9790   48.0380 C.3    67  GLU67       0.1567
     50  C         42.5950  -10.6440   46.9430 C.2    67  GLU67       0.2260
     51  O         42.1430  -10.8580   45.8130 O.2    67  GLU67      -0.2867
     52  CB        40.4110   -9.3950   47.4890 C.3    67  GLU67       0.0388
     53  CG        39.5680   -8.7520   48.5980 C.3    67  GLU67       0.1160
     54  CD        38.1740   -8.2940   48.1710 C.2    67  GLU67       0.3649
     55  OE1       37.4210   -9.0880   47.5520 O.co2  67  GLU67      -0.2457
     56  OE2       37.8080   -7.1290   48.4770 O.co2  67  GLU67      -0.2457
     57  N         42.0240   -0.1550   43.4660 N.3   100  HIS100     -0.1241
     58  CA        40.7080   -0.6910   43.7800 C.3   100  HIS100      0.1621
     59  C         40.6040   -1.1640   45.2300 C.2   100  HIS100      0.2264
     60  O         40.5010   -2.3530   45.5080 O.2   100  HIS100     -0.2867
     61  CB        40.3260   -1.8130   42.7950 C.3   100  HIS100      0.0745
     62  CG        38.8590   -2.0980   42.7340 C.ar  100  HIS100      0.0817
     63  ND1       37.9960   -1.4060   41.9090 N.ar  100  HIS100     -0.2268
     64  CD2       38.1070   -3.0290   43.3680 C.ar  100  HIS100      0.1154
     65  CE1       36.7730   -1.8850   42.0580 C.ar  100  HIS100      0.1986
     66  NE2       36.8120   -2.8690   42.9380 N.ar  100  HIS100     -0.2212
     67  N         38.6370   -1.5500   48.7850 N.3   102  LEU102     -0.1245
     68  CA        37.2780   -1.8930   49.1490 C.3   102  LEU102      0.1561
     69  C         37.2380   -2.3180   50.6250 C.2   102  LEU102      0.2260
     70  O         36.5440   -1.7060   51.4380 O.2   102  LEU102     -0.2867
     71  CB        36.7790   -3.0170   48.2350 C.3   102  LEU102      0.0270
     72  CG        35.3260   -3.4520   48.3710 C.3   102  LEU102      0.0019
     73  CD1       34.3680   -2.2660   48.2650 C.3   102  LEU102      0.0001
     74  CD2       35.0190   -4.4980   47.3250 C.3   102  LEU102      0.0001
     75  N         36.5080    2.8190   46.3240 N.3   138  GLU138     -0.1245
     76  CA        35.2880    2.8400   47.1600 C.3   138  GLU138      0.1567
     77  C         35.6040    2.9920   48.6620 C.2   138  GLU138      0.2260
     78  O         35.5150    2.0300   49.4230 O.2   138  GLU138     -0.2867
     79  CB        34.4430    1.5850   46.9060 C.3   138  GLU138      0.0388
     80  CG        33.6240    1.6660   45.6190 C.3   138  GLU138      0.1160
     81  CD        32.5050    0.6430   45.5000 C.2   138  GLU138      0.3649
     82  OE1       31.7340    0.7100   44.5020 O.co2 138  GLU138     -0.2457
     83  OE2       32.3780   -0.2200   46.3910 O.co2 138  GLU138     -0.2457
     84  N         31.0950    4.0980   49.8370 N.3   174  TRP174     -0.1241
     85  CA        31.2940    3.3220   48.6200 C.3   174  TRP174      0.1605
     86  C         31.0930    4.1980   47.3910 C.2   174  TRP174      0.2264
     87  O         30.4470    3.8100   46.4230 O.2   174  TRP174     -0.2867
     88  CB        30.3860    2.0820   48.5850 C.3   174  TRP174      0.0550
     89  CG        30.6800    1.1140   49.6810 C.ar  174  TRP174      0.0003
     90  CD1       31.5890    0.0990   49.6590 C.ar  174  TRP174      0.0946
     91  CD2       30.0690    1.0770   50.9710 C.ar  174  TRP174      0.0152
     92  NE1       31.5700   -0.5780   50.8530 N.ar  174  TRP174     -0.2442
     93  CE2       30.6470    0.0040   51.6790 C.ar  174  TRP174      0.0810
     94  CE3       29.0720    1.8330   51.5970 C.ar  174  TRP174      0.0012
     95  CZ2       30.2770   -0.3230   52.9830 C.ar  174  TRP174      0.0191
     96  CZ3       28.6930    1.5020   52.9010 C.ar  174  TRP174      0.0001
     97  CH2       29.3070    0.4340   53.5760 C.ar  174  TRP174      0.0015
     98  N         24.7530    6.9460   50.7890 N.3   180  SER180     -0.1217
     99  CA        24.5470    5.7130   51.5430 C.3   180  SER180      0.1889
    100  C         24.8290    5.8740   53.0420 C.2   180  SER180      0.2288
    101  O         24.3720    5.0580   53.8410 O.2   180  SER180     -0.2866
    102  CB        25.3870    4.5720   50.9540 C.3   180  SER180      0.2089
    103  OG        26.7720    4.8410   51.0480 O.3   180  SER180     -0.2183
    104  N         29.2150    5.8680   42.2020 N.3   203  HIS203     -0.1241
    105  CA        28.8650    4.4980   41.8610 C.3   203  HIS203      0.1621
    106  C         27.4100    4.2280   42.2330 C.2   203  HIS203      0.2264
    107  O         26.9730    4.5890   43.3350 O.2   203  HIS203     -0.2867
    108  CB        29.7230    3.5000   42.6300 C.3   203  HIS203      0.0745
    109  CG        31.1890    3.5800   42.3230 C.ar  203  HIS203      0.0817
    110  ND1       32.0870    2.6650   42.8230 N.ar  203  HIS203     -0.2268
    111  CD2       31.9050    4.4150   41.5320 C.ar  203  HIS203      0.1154
    112  CE1       33.3000    2.9600   42.3880 C.ar  203  HIS203      0.1986
    113  NE2       33.2210    4.0190   41.6060 N.ar  203  HIS203     -0.2212
    114  N         23.9600    1.1710   41.4650 N.3   205  TYR205     -0.1241
    115  CA        23.4420   -0.0880   40.9620 C.3   205  TYR205      0.1605
    116  C         21.9400    0.1040   40.8640 C.2   205  TYR205      0.2264
    117  O         21.2690    0.2130   41.8880 O.2   205  TYR205     -0.2867
    118  CB        23.8040   -1.2190   41.9220 C.3   205  TYR205      0.0534
    119  CG        25.2850   -1.5040   41.9060 C.ar  205  TYR205     -0.0201
    120  CD1       25.8310   -2.3730   40.9640 C.ar  205  TYR205     -0.0009
    121  CD2       26.1460   -0.8790   42.7990 C.ar  205  TYR205     -0.0009
    122  CE1       27.2020   -2.6330   40.9250 C.ar  205  TYR205      0.0417
    123  CE2       27.5240   -1.1350   42.7700 C.ar  205  TYR205      0.0417
    124  CZ        28.0400   -2.0110   41.8200 C.ar  205  TYR205      0.1957
    125  OH        29.3970   -2.2810   41.7740 O.3   205  TYR205     -0.2866
    126  N         18.9080   -1.2880   42.9490 N.3   208  SER208     -0.1202
    127  CA        18.9000   -0.9470   44.3750 C.3   208  SER208      0.2020
    128  C         18.8520    0.5540   44.6630 C.2   208  SER208      0.2618
    129  O         18.3850    0.9700   45.7270 O.2   208  SER208     -0.2717
    130  CB        20.1540   -1.4990   45.0520 C.3   208  SER208      0.2103
    131  OG        20.2420   -2.9050   44.9410 O.3   208  SER208     -0.2182
    132  N         19.3610    1.3570   43.7330 N.am  209  HIS209     -0.1975
    133  CA        19.6060    2.7800   43.9590 C.3   209  HIS209      0.1656
    134  C         18.6720    3.6140   43.0800 C.2   209  HIS209      0.2291
    135  O         18.8650    3.6970   41.8690 O.2   209  HIS209     -0.2864
    136  CB        21.0780    3.0950   43.6580 C.3   209  HIS209      0.0771
    137  CG        22.0360    2.4340   44.6030 C.ar  209  HIS209      0.0820
    138  ND1       21.7350    2.2140   45.9280 N.ar  209  HIS209     -0.2267
    139  CD2       23.2750    1.9250   44.4160 C.ar  209  HIS209      0.1154
    140  CE1       22.7500    1.6120   46.5180 C.ar  209  HIS209      0.1986
    141  NE2       23.6960    1.4180   45.6190 N.ar  209  HIS209     -0.2212
    142  N         19.4060    8.5690   44.7710 N.3   213  TYR213     -0.1241
    143  CA        20.7380    8.4580   44.1610 C.3   213  TYR213      0.1605
    144  C         20.8100    9.2150   42.8310 C.2   213  TYR213      0.2264
    145  O         21.7550    9.9490   42.5850 O.2   213  TYR213     -0.2867
    146  CB        21.1180    6.9860   43.9630 C.3   213  TYR213      0.0534
    147  CG        21.5060    6.3030   45.2460 C.ar  213  TYR213     -0.0201
    148  CD1       22.8440    6.0510   45.5600 C.ar  213  TYR213     -0.0009
    149  CD2       20.5370    5.9070   46.1530 C.ar  213  TYR213     -0.0009
    150  CE1       23.1870    5.4160   46.7590 C.ar  213  TYR213      0.0417
    151  CE2       20.8670    5.2660   47.3350 C.ar  213  TYR213      0.0417
    152  CZ        22.1870    5.0310   47.6370 C.ar  213  TYR213      0.1957
    153  OH        22.4870    4.4080   48.8250 O.3   213  TYR213     -0.2866
    154  N         32.0200    3.2590   38.1630 N.3   230  GLN230     -0.1245
    155  CA        31.4840    1.9210   38.3410 C.3   230  GLN230      0.1566
    156  C         29.9730    1.9880   38.4800 C.2   230  GLN230      0.2260
    157  O         29.4550    2.6900   39.3250 O.2   230  GLN230     -0.2867
    158  CB        32.1010    1.2710   39.6000 C.3   230  GLN230      0.0367
    159  CG        32.0380   -0.2350   39.6100 C.3   230  GLN230      0.0905
    160  CD        32.7870   -0.8690   40.7640 C.2   230  GLN230      0.2608
    161  OE1       33.9960   -0.6610   40.9290 O.2   230  GLN230     -0.2717
    162  NE2       32.0780   -1.6860   41.5460 N.am  230  GLN230     -0.0878
    163  N         22.9830   -4.0020   44.4140 N.3   236  TYR236     -0.1227
    164  CA        24.2460   -3.5790   45.0370 C.3   236  TYR236      0.1736
    165  C         25.2930   -4.6880   45.2310 C.2   236  TYR236      0.2596
    166  O         26.4450   -4.3920   45.5250 O.2   236  TYR236     -0.2718
    167  CB        23.9770   -2.8670   46.3770 C.3   236  TYR236      0.0548
    168  CG        23.4500   -3.7670   47.4860 C.ar  236  TYR236     -0.0200
    169  CD1       24.3200   -4.3960   48.3740 C.ar  236  TYR236     -0.0009
    170  CD2       22.0820   -3.9750   47.6550 C.ar  236  TYR236     -0.0009
    171  CE1       23.8430   -5.2200   49.3990 C.ar  236  TYR236      0.0417
    172  CE2       21.5920   -4.8070   48.6740 C.ar  236  TYR236      0.0417
    173  CZ        22.4810   -5.4200   49.5460 C.ar  236  TYR236      0.1957
    174  OH        22.0110   -6.2320   50.5520 O.3   236  TYR236     -0.2866
    175  N         24.8980   -5.9500   45.0560 N.am  237  THR237     -0.1939
    176  CA        25.8300   -7.0880   45.1210 C.3   237  THR237      0.2028
    177  C         26.5610   -7.3520   43.8020 C.2   237  THR237      0.2642
    178  O         27.5220   -8.1150   43.7700 O.2   237  THR237     -0.2714
    179  CB        25.0860   -8.3860   45.5250 C.3   237  THR237      0.1808
    180  OG1       24.1680   -8.7680   44.4860 O.3   237  THR237     -0.2208
    181  CG2       24.1940   -8.1660   46.7550 C.3   237  THR237      0.0379
    182  N         26.0950   -6.7400   42.7170 N.am  238  GLY238     -0.1954
    183  CA        26.6080   -7.0230   41.3870 C.3   238  GLY238      0.1869
    184  C         25.8880   -8.1860   40.7240 C.2   238  GLY238      0.2309
    185  O         26.2460   -8.5890   39.6150 O.2   238  GLY238     -0.2863
    186  N         30.3530   -1.8560   35.2120 N.3   264  TRP264     -0.1227
    187  CA        30.8940   -3.0160   35.9040 C.3   264  TRP264      0.1737
    188  C         30.1080   -4.2290   35.4200 C.2   264  TRP264      0.2595
    189  O         28.9270   -4.3120   35.7310 O.2   264  TRP264     -0.2718
    190  CB        30.6610   -2.8230   37.3950 C.3   264  TRP264      0.0564
    191  CG        31.2760   -3.8310   38.3210 C.ar  264  TRP264      0.0003
    192  CD1       30.6090   -4.7770   39.0500 C.ar  264  TRP264      0.0946
    193  CD2       32.6510   -3.9370   38.6970 C.ar  264  TRP264      0.0152
    194  NE1       31.4930   -5.4930   39.8200 N.ar  264  TRP264     -0.2442
    195  CE2       32.7570   -5.0020   39.6180 C.ar  264  TRP264      0.0810
    196  CE3       33.8220   -3.2730   38.3080 C.ar  264  TRP264      0.0012
    197  CZ2       33.9740   -5.3960   40.1780 C.ar  264  TRP264      0.0191
    198  CZ3       35.0300   -3.6710   38.8630 C.ar  264  TRP264      0.0001
    199  CH2       35.0910   -4.7150   39.7970 C.ar  264  TRP264      0.0015
    200  N         30.6960   -5.1730   34.6870 N.am  265  ASN265     -0.1974
    201  CA        32.1090   -5.2410   34.3020 C.3   265  ASN265      0.1688
    202  C         32.3450   -6.1250   33.0530 C.2   265  ASN265      0.2292
    203  O         31.4600   -6.8710   32.6140 O.2   265  ASN265     -0.2864
    204  CB        32.9550   -5.7700   35.4640 C.3   265  ASN265      0.1181
    205  CG        32.5080   -7.1290   35.9450 C.2   265  ASN265      0.2629
    206  OD1       32.8470   -8.1400   35.3550 O.2   265  ASN265     -0.2716
    207  ND2       31.7460   -7.1600   37.0430 N.am  265  ASN265     -0.0877
    208  N         32.5040  -13.5100   34.7880 N.3   269  ASP269     -0.1225
    209  CA        32.1160  -13.9030   36.1380 C.3   269  ASP269      0.1805
    210  C         30.6570  -14.3850   36.0830 C.2   269  ASP269      0.2598
    211  O         29.9160  -14.0110   35.1760 O.2   269  ASP269     -0.2718
    212  CB        32.2700  -12.7100   37.0770 C.3   269  ASP269      0.1424
    213  CG        32.0630  -13.0720   38.5340 C.2   269  ASP269      0.3668
    214  OD1       31.3520  -12.2950   39.2110 O.co2 269  ASP269     -0.2456
    215  OD2       32.5690  -14.0910   39.0730 O.co2 269  ASP269     -0.2456
    216  N         30.2660  -15.2350   37.0260 N.am  270  PHE270     -0.1962
    217  CA        28.9240  -15.8110   37.0380 C.3   270  PHE270      0.1771
    218  C         27.8420  -14.7760   37.3690 C.2   270  PHE270      0.2619
    219  O         26.6610  -14.9890   37.0890 O.2   270  PHE270     -0.2715
    220  CB        28.8590  -16.9910   38.0180 C.3   270  PHE270      0.0574
    221  CG        28.9680  -16.5910   39.4610 C.ar  270  PHE270     -0.0200
    222  CD1       30.1880  -16.6720   40.1240 C.ar  270  PHE270     -0.0042
    223  CD2       27.8580  -16.1320   40.1590 C.ar  270  PHE270     -0.0042
    224  CE1       30.3030  -16.3020   41.4580 C.ar  270  PHE270     -0.0003
    225  CE2       27.9620  -15.7610   41.4890 C.ar  270  PHE270     -0.0003
    226  CZ        29.1930  -15.8450   42.1420 C.ar  270  PHE270     -0.0000
    227  N         28.2320  -13.6580   37.9770 N.am  271  ARG271     -0.1977
    228  CA        27.2510  -12.6460   38.3490 C.3   271  ARG271      0.1597
    229  C         26.6350  -11.9250   37.1470 C.2   271  ARG271      0.2287
    230  O         27.2450  -11.8180   36.0780 O.2   271  ARG271     -0.2864
    231  CB        27.8640  -11.6470   39.3210 C.3   271  ARG271      0.0334
    232  CG        28.2590  -12.2580   40.6580 C.3   271  ARG271      0.0492
    233  CD        28.9380  -11.2580   41.5780 C.3   271  ARG271      0.2205
    234  NE        29.3060  -11.8460   42.8620 N.pl3 271  ARG271     -0.0865
    235  CZ        30.3440  -12.6600   43.0590 C.cat 271  ARG271      0.5346
    236  NH1       31.1640  -12.9900   42.0680 N.pl3 271  ARG271      0.1354
    237  NH2       30.5820  -13.1320   44.2750 N.pl3 271  ARG271      0.1354
@<TRIPOS>BOND
     1   203   202    2
     2   202   201    1
     3    28    27    2
     4   201   200    1
     5   201   204    1
     6    27    26    1
     7   200   188   am
     8   208   209    1
     9   211   210    2
    10   186   187    1
    11   206   205    2
    12   188   189    2
    13   188   187    1
    14   204   205    1
    15    29    26    1
    16    29    30    1
    17    26    25    1
    18     1     2    1
    19    31    30   ar
    20    31    33   ar
    21   187   190    1
    22   205   207   am
    23   230   229    2
    24   210   209    1
    25   210   216   am
    26   209   212    1
    27    30    32   ar
    28    33    35   ar
    29     4     3    2
    30    25    13   am
    31     5     2    1
    32     5     6    1
    33     2     3    1
    34   216   217    1
    35   217   218    1
    36   217   220    1
    37   212   213    1
    38   219   218    2
    39   229   228    1
    40    14    13    2
    41   218   227   am
    42   190   191    1
    43    32    34   ar
    44    13    12    1
    45    35    34   ar
    46   227   228    1
    47   220   221    1
    48   154   155    1
    49     7     6   ar
    50     7     9   ar
    51     6     8   ar
    52   196   193   ar
    53   196   198   ar
    54   191   193   ar
    55   191   192   ar
    56   155   156    1
    57   155   158    1
    58   228   231    1
    59   156   157    2
    60   213   215   ar
    61   213   214   ar
    62   193   195   ar
    63   198   199   ar
    64   192   194   ar
    65    12    11    1
    66    12    15    1
    67   231   232    1
    68     9    10   ar
    69   221   222   ar
    70   221   223   ar
    71     8    10   ar
    72   158   159    1
    73   159   160    1
    74   185   184    2
    75   195   194   ar
    76   195   197   ar
    77   199   197   ar
    78    15    16    1
    79   222   224   ar
    80   223   225   ar
    81   232   233    1
    82   184   183    1
    83   160   161    2
    84   160   162   am
    85   116   115    1
    86   116   117    2
    87   122   120   ar
    88   122   124   ar
    89   115   114    1
    90   115   118    1
    91   120   119   ar
    92    16    17   ar
    93    16    18   ar
    94   183   182    1
    95   224   226   ar
    96   225   226   ar
    97   111   113   ar
    98   111   109   ar
    99   233   234    1
   100   113   112   ar
   101   125   124    1
   102   124   123   ar
   103   105   104    1
   104   105   106    1
   105   105   108    1
   106   135   134    2
   107   119   118    1
   108   119   121   ar
   109    63    65   ar
   110    63    62   ar
   111    21    18   ar
   112    21    23   ar
   113    65    66   ar
   114   236   235    1
   115    17    19   ar
   116   106   107    2
   117    18    20   ar
   118   109   108    1
   119   109   110   ar
   120   112   110   ar
   121    36    37    1
   122   145   144    2
   123    44    42   ar
   124    44    46   ar
   125   182   177   am
   126    62    61    1
   127    62    64   ar
   128   123   121   ar
   129    42    41   ar
   130    61    58    1
   131   144   143    1
   132   234   235    2
   133    66    64   ar
   134   126   127    1
   135   235   237    1
   136   134   133    1
   137    23    24   ar
   138    57    58    1
   139    19    20   ar
   140    20    22   ar
   141    47    46    1
   142   136   133    1
   143   136   137    1
   144   132   133    1
   145   132   128   am
   146    46    45   ar
   147   178   177    2
   148    58    59    1
   149   177   176    1
   150    37    40    1
   151    37    38    1
   152    39    38    2
   153   146   143    1
   154   146   147    1
   155    41    40    1
   156    41    43   ar
   157   143   142    1
   158   127   128    1
   159   127   130    1
   160   163   164    1
   161   139   137   ar
   162   139   141   ar
   163    24    22   ar
   164   180   179    1
   165    82    81   ar
   166   137   138   ar
   167   128   129    2
   168   131   130    1
   169    45    43   ar
   170   164   165    1
   171   164   167    1
   172   175   176    1
   173   175   165   am
   174   176   179    1
   175    59    60    2
   176   165   166    2
   177   147   148   ar
   178   147   149   ar
   179    81    80    1
   180    81    83   ar
   181   179   181    1
   182   148   150   ar
   183   141   140   ar
   184    80    79    1
   185    51    50    2
   186   138   140   ar
   187   149   151   ar
   188    75    76    1
   189   167   168    1
   190    87    86    2
   191   150   152   ar
   192    79    76    1
   193    50    49    1
   194    76    77    1
   195    74    72    1
   196   151   152   ar
   197    86    85    1
   198   168   170   ar
   199   168   169   ar
   200    52    49    1
   201    52    53    1
   202    55    54   ar
   203   152   153    1
   204   170   172   ar
   205    49    48    1
   206    54    56   ar
   207    54    53    1
   208    71    72    1
   209    71    68    1
   210    73    72    1
   211   169   171   ar
   212    88    85    1
   213    88    89    1
   214    85    84    1
   215    77    78    2
   216   172   173   ar
   217    67    68    1
   218    68    69    1
   219   171   173   ar
   220   173   174    1
   221    90    89   ar
   222    90    92   ar
   223    89    91   ar
   224    69    70    2
   225    98    99    1
   226    92    93   ar
   227   102   103    1
   228   102    99    1
   229    91    94   ar
   230    91    93   ar
   231    99   100    1
   232    94    96   ar
   233    93    95   ar
   234    96    97   ar
   235    95    97   ar
   236   100   101    2
