@<TRIPOS>MOLECULE
tmp/2ckrA00.pdb
 119 120 0 0 0
SMALL
GASTEIGER

@<TRIPOS>ATOM
      1  N         10.1310    9.3820   -1.0910 N.3    33  HIS33      -0.1241
      2  CA        10.0760    9.8940    0.2700 C.3    33  HIS33       0.1621
      3  C          8.5690    9.8990    0.6250 C.2    33  HIS33       0.2264
      4  O          7.7360    9.4900   -0.1800 O.2    33  HIS33      -0.2867
      5  CB        10.7380   11.2890    0.3290 C.3    33  HIS33       0.0745
      6  CG        11.2220   11.6880    1.6880 C.ar   33  HIS33       0.0817
      7  ND1       12.5420   12.0040    1.9440 N.ar   33  HIS33      -0.2268
      8  CD2       10.5660   11.8480    2.8590 C.ar   33  HIS33       0.1154
      9  CE1       12.6740   12.3390    3.2150 C.ar   33  HIS33       0.1986
     10  NE2       11.4880   12.2580    3.7910 N.ar   33  HIS33      -0.2212
     11  N          4.8480   14.9280    1.9530 N.3    37  TRP37      -0.1227
     12  CA         5.8390   15.9960    1.7930 C.3    37  TRP37       0.1737
     13  C          6.3610   16.1690    0.3680 C.2    37  TRP37       0.2595
     14  O          6.6910   17.2870   -0.0300 O.2    37  TRP37      -0.2718
     15  CB         7.0410   15.7440    2.6940 C.3    37  TRP37       0.0564
     16  CG         6.7610   15.7270    4.1620 C.ar   37  TRP37       0.0003
     17  CD1        5.9650   16.5830    4.8710 C.ar   37  TRP37       0.0946
     18  CD2        7.3120   14.8130    5.1140 C.ar   37  TRP37       0.0152
     19  NE1        5.9820   16.2470    6.2030 N.ar   37  TRP37      -0.2442
     20  CE2        6.7980   15.1590    6.3760 C.ar   37  TRP37       0.0810
     21  CE3        8.1870   13.7230    5.0220 C.ar   37  TRP37       0.0012
     22  CZ2        7.1360   14.4610    7.5420 C.ar   37  TRP37       0.0191
     23  CZ3        8.5160   13.0190    6.1800 C.ar   37  TRP37       0.0001
     24  CH2        7.9930   13.3960    7.4240 C.ar   37  TRP37       0.0015
     25  N          6.4800   15.0760   -0.3850 N.am   38  PHE38      -0.1976
     26  CA         7.1890   15.1030   -1.6680 C.3    38  PHE38       0.1639
     27  C          6.3610   14.5670   -2.8310 C.2    38  PHE38       0.2290
     28  O          6.8900   13.9950   -3.7820 O.2    38  PHE38      -0.2864
     29  CB         8.5310   14.3800   -1.5450 C.3    38  PHE38       0.0560
     30  CG         9.4750   15.0520   -0.5810 C.ar   38  PHE38      -0.0200
     31  CD1       10.1790   16.1840   -0.9590 C.ar   38  PHE38      -0.0042
     32  CD2        9.6170   14.5810    0.7240 C.ar   38  PHE38      -0.0042
     33  CE1       11.0290   16.8100   -0.0570 C.ar   38  PHE38      -0.0003
     34  CE2       10.4570   15.2170    1.6210 C.ar   38  PHE38      -0.0003
     35  CZ        11.1580   16.3280    1.2300 C.ar   38  PHE38      -0.0000
     36  N          3.4980    7.7190    4.7660 N.3    64  TYR64      -0.1241
     37  CA         3.5060    7.9100    6.2120 C.3    64  TYR64       0.1605
     38  C          2.0600    7.9110    6.7210 C.2    64  TYR64       0.2264
     39  O          1.1490    8.3080    5.9980 O.2    64  TYR64      -0.2867
     40  CB         4.1830    9.2320    6.6080 C.3    64  TYR64       0.0534
     41  CG         5.7090    9.2640    6.6490 C.ar   64  TYR64      -0.0201
     42  CD1        6.4620    9.2040    5.4800 C.ar   64  TYR64      -0.0009
     43  CD2        6.3960    9.4160    7.8530 C.ar   64  TYR64      -0.0009
     44  CE1        7.8540    9.2780    5.5050 C.ar   64  TYR64       0.0417
     45  CE2        7.7870    9.4790    7.8880 C.ar   64  TYR64       0.0417
     46  CZ         8.5060    9.4240    6.7020 C.ar   64  TYR64       0.1957
     47  OH         9.8830    9.4980    6.7100 O.3    64  TYR64      -0.2866
     48  N          2.6980   12.0380   11.1340 N.3    67  GLU67      -0.1245
     49  CA         3.5760   13.0440   10.5160 C.3    67  GLU67       0.1567
     50  C          2.8790   13.6810    9.3030 C.2    67  GLU67       0.2260
     51  O          3.4720   13.8530    8.2370 O.2    67  GLU67      -0.2867
     52  CB         4.9590   12.4500   10.1830 C.3    67  GLU67       0.0388
     53  CG         5.5890   11.7350   11.3920 C.3    67  GLU67       0.1160
     54  CD         7.0430   11.2880   11.2210 C.2    67  GLU67       0.3649
     55  OE1        7.8770   12.0530   10.6670 O.co2  67  GLU67      -0.2457
     56  OE2        7.3760   10.1710   11.6950 O.co2  67  GLU67      -0.2457
     57  N         20.6090    9.0990    9.8210 N.3   237  THR237     -0.1203
     58  CA        19.6630   10.2220    9.7080 C.3   237  THR237      0.1994
     59  C         19.1540   10.4560    8.2740 C.2   237  THR237      0.2618
     60  O         18.1880   11.1860    8.0700 O.2   237  THR237     -0.2717
     61  CB        20.2940   11.5400   10.2380 C.3   237  THR237      0.1784
     62  OG1       21.3920   11.9420    9.4050 O.3   237  THR237     -0.2211
     63  CG2       20.9220   11.3610   11.6270 C.3   237  THR237      0.0376
     64  N         19.7970    9.8360    7.2900 N.am  238  GLY238     -0.1956
     65  CA        19.5010   10.0850    5.8880 C.3   238  GLY238      0.1869
     66  C         20.3260   11.2290    5.3160 C.2   238  GLY238      0.2309
     67  O         20.1330   11.6120    4.1570 O.2   238  GLY238     -0.2863
     68  N         16.5940    4.8180   -0.5700 N.3   264  TRP264     -0.1227
     69  CA        16.0100    6.0070    0.0200 C.3   264  TRP264      0.1737
     70  C         16.8720    7.1950   -0.4180 C.2   264  TRP264      0.2595
     71  O         18.0230    7.2700    0.0220 O.2   264  TRP264     -0.2718
     72  CB        16.1170    5.8510    1.5380 C.3   264  TRP264      0.0564
     73  CG        15.4330    6.8630    2.3670 C.ar  264  TRP264      0.0003
     74  CD1       16.0220    7.8180    3.1520 C.ar  264  TRP264      0.0946
     75  CD2       14.0290    6.9930    2.5690 C.ar  264  TRP264      0.0152
     76  NE1       15.0600    8.5580    3.7940 N.ar  264  TRP264     -0.2442
     77  CE2       13.8270    8.0760    3.4550 C.ar  264  TRP264      0.0810
     78  CE3       12.9040    6.3320    2.0530 C.ar  264  TRP264      0.0012
     79  CZ2       12.5560    8.4910    3.8530 C.ar  264  TRP264      0.0191
     80  CZ3       11.6450    6.7370    2.4580 C.ar  264  TRP264      0.0001
     81  CH2       11.4810    7.8060    3.3540 C.ar  264  TRP264      0.0015
     82  N         16.3920    8.1300   -1.2400 N.am  265  ASN265     -0.1974
     83  CA        15.0280    8.2370   -1.7570 C.3   265  ASN265      0.1688
     84  C         14.9480    9.1180   -3.0230 C.2   265  ASN265      0.2292
     85  O         15.8610    9.9080   -3.3120 O.2   265  ASN265     -0.2864
     86  CB        14.0830    8.8090   -0.6830 C.3   265  ASN265      0.1181
     87  CG        14.4780   10.2190   -0.2340 C.2   265  ASN265      0.2629
     88  OD1       14.2450   11.1970   -0.9330 O.2   265  ASN265     -0.2716
     89  ND2       15.0710   10.3190    0.9470 N.am  265  ASN265     -0.0877
     90  N         14.6180   16.5060   -1.4500 N.3   269  ASP269     -0.1225
     91  CA        14.8920   16.9120   -0.0720 C.3   269  ASP269      0.1805
     92  C         16.3400   17.4070    0.0410 C.2   269  ASP269      0.2598
     93  O         17.1950   17.0120   -0.7540 O.2   269  ASP269     -0.2718
     94  CB        14.6680   15.7280    0.8610 C.3   269  ASP269      0.1424
     95  CG        14.6920   16.1110    2.3200 C.2   269  ASP269      0.3668
     96  OD1       15.2940   15.3370    3.1040 O.co2 269  ASP269     -0.2456
     97  OD2       14.1400   17.1500    2.7670 O.co2 269  ASP269     -0.2456
     98  N         16.6160   18.2570    1.0280 N.am  270  PHE270     -0.1962
     99  CA        17.9620   18.8210    1.2020 C.3   270  PHE270      0.1771
    100  C         19.0140   17.8040    1.6800 C.2   270  PHE270      0.2619
    101  O         20.2140   18.0050    1.4950 O.2   270  PHE270     -0.2715
    102  CB        17.9110   20.0270    2.1460 C.3   270  PHE270      0.0574
    103  CG        17.7660   19.6600    3.5940 C.ar  270  PHE270     -0.0200
    104  CD1       16.5150   19.6210    4.1920 C.ar  270  PHE270     -0.0042
    105  CD2       18.8870   19.3430    4.3620 C.ar  270  PHE270     -0.0042
    106  CE1       16.3770   19.2790    5.5370 C.ar  270  PHE270     -0.0003
    107  CE2       18.7620   18.9920    5.6990 C.ar  270  PHE270     -0.0003
    108  CZ        17.5080   18.9570    6.2920 C.ar  270  PHE270     -0.0000
    109  N         18.5740   16.7120    2.2910 N.am  271  ARG271     -0.1977
    110  CA        19.5020   15.7170    2.8320 C.3   271  ARG271      0.1597
    111  C         20.2460   14.9560    1.7220 C.2   271  ARG271      0.2287
    112  O         19.7180   14.7750    0.6170 O.2   271  ARG271     -0.2864
    113  CB        18.7430   14.7430    3.7240 C.3   271  ARG271      0.0334
    114  CG        18.1420   15.3930    4.9660 C.3   271  ARG271      0.0492
    115  CD        17.3470   14.4160    5.8230 C.3   271  ARG271      0.2205
    116  NE        16.8460   15.0500    7.0380 N.pl3 271  ARG271     -0.0865
    117  CZ        15.7810   15.8410    7.0980 C.cat 271  ARG271      0.5346
    118  NH1       15.0610   16.1120    6.0130 N.pl3 271  ARG271      0.1354
    119  NH2       15.4250   16.3710    8.2590 N.pl3 271  ARG271      0.1354
@<TRIPOS>BOND
     1    28    27    2
     2    85    84    2
     3    84    83    1
     4    27    26    1
     5    83    82    1
     6    83    86    1
     7    26    29    1
     8    26    25    1
     9    29    30    1
    10    90    91    1
    11    82    70   am
    12     1     2    1
    13    31    30   ar
    14    31    33   ar
    15    88    87    2
    16    93    92    2
    17    86    87    1
    18    30    32   ar
    19    68    69    1
    20    70    69    1
    21    70    71    2
    22    25    13   am
    23    87    89   am
    24     4     3    2
    25    91    92    1
    26    91    94    1
    27    33    35   ar
    28    14    13    2
    29    69    72    1
    30    92    98   am
    31     2     5    1
    32     2     3    1
    33     5     6    1
    34    13    12    1
    35   112   111    2
    36    32    34   ar
    37    94    95    1
    38    98    99    1
    39    99   100    1
    40    99   102    1
    41    35    34   ar
    42   101   100    2
    43    72    73    1
    44   100   109   am
    45     6     7   ar
    46     6     8   ar
    47   111   110    1
    48    12    11    1
    49    12    15    1
    50     7     9   ar
    51    78    80   ar
    52    78    75   ar
    53   102   103    1
    54   109   110    1
    55    95    97   ar
    56    95    96   ar
    57    73    75   ar
    58    73    74   ar
    59    80    81   ar
    60    75    77   ar
    61    15    16    1
    62   110   113    1
    63     8    10   ar
    64    74    76   ar
    65     9    10   ar
    66    81    79   ar
    67    77    76   ar
    68    77    79   ar
    69   103   104   ar
    70   103   105   ar
    71   113   114    1
    72    67    66    2
    73    16    17   ar
    74    16    18   ar
    75   104   106   ar
    76   105   107   ar
    77    36    37    1
    78    17    19   ar
    79   114   115    1
    80    21    18   ar
    81    21    23   ar
    82    18    20   ar
    83    66    65    1
    84    42    44   ar
    85    42    41   ar
    86    44    46   ar
    87   106   108   ar
    88   107   108   ar
    89   115   116    1
    90    65    64    1
    91    39    38    2
    92   118   117    1
    93    23    24   ar
    94    19    20   ar
    95    37    40    1
    96    37    38    1
    97    20    22   ar
    98    40    41    1
    99    41    43   ar
   100    46    47    1
   101    46    45   ar
   102   116   117    2
   103   117   119    1
   104    64    59   am
   105    24    22   ar
   106    43    45   ar
   107    60    59    2
   108    51    50    2
   109    59    58    1
   110    50    49    1
   111    62    61    1
   112    58    57    1
   113    58    61    1
   114    52    49    1
   115    52    53    1
   116    61    63    1
   117    49    48    1
   118    55    54   ar
   119    54    53    1
   120    54    56   ar
