@<TRIPOS>MOLECULE
tmp/2cl5A01.pdb
 103 103 0 0 0
SMALL
GASTEIGER

@<TRIPOS>ATOM
      1  N          3.5880   12.8010   59.5930 N.3    37  TRP37      -0.1241
      2  CA         3.8940   11.4490   60.0510 C.3    37  TRP37       0.1605
      3  C          5.2550   11.0080   59.4990 C.2    37  TRP37       0.2264
      4  O          5.6900   11.4420   58.4300 O.2    37  TRP37      -0.2867
      5  CB         2.8260   10.4620   59.5560 C.3    37  TRP37       0.0550
      6  CG         2.9510    9.1220   60.1410 C.ar   37  TRP37       0.0003
      7  CD1        2.5030    8.7050   61.3750 C.ar   37  TRP37       0.0946
      8  CD2        3.6080    7.9900   59.5560 C.ar   37  TRP37       0.0152
      9  NE1        2.8540    7.3940   61.5810 N.ar   37  TRP37      -0.2442
     10  CE2        3.5200    6.9330   60.4710 C.ar   37  TRP37       0.0810
     11  CE3        4.2740    7.7640   58.3390 C.ar   37  TRP37       0.0012
     12  CZ2        4.0480    5.6750   60.2070 C.ar   37  TRP37       0.0191
     13  CZ3        4.8340    6.5020   58.1020 C.ar   37  TRP37       0.0001
     14  CH2        4.6910    5.4830   59.0220 C.ar   37  TRP37       0.0015
     15  N          7.9350    7.1830   59.7820 N.3    39  MET39      -0.1245
     16  CA         8.1120    5.8000   60.2490 C.3    39  MET39       0.1570
     17  C          9.1810    5.5790   61.3310 C.2    39  MET39       0.2261
     18  O          9.8220    4.5150   61.3850 O.2    39  MET39      -0.2867
     19  CB         8.2850    4.8580   59.0530 C.3    39  MET39       0.0387
     20  CG         9.5230    5.1670   58.2350 C.3    39  MET39       0.0595
     21  SD         9.5790    4.0650   56.7670 S.3    39  MET39      -0.1393
     22  CE        10.8390    4.8650   55.8490 C.3    39  MET39       0.0692
     23  N         13.9040   -3.3600   62.1860 N.3   140  ASP140     -0.1225
     24  CA        12.9370   -2.3000   61.8140 C.3   140  ASP140      0.1805
     25  C         13.1460   -1.8600   60.3760 C.2   140  ASP140      0.2598
     26  O         13.0060   -0.6600   60.0640 O.2   140  ASP140     -0.2718
     27  CB        13.0860   -1.1390   62.7650 C.3   140  ASP140      0.1424
     28  CG        11.9200   -0.1780   62.7450 C.2   140  ASP140      0.3668
     29  OD1       10.7710   -0.5620   62.3280 O.co2 140  ASP140     -0.2456
     30  OD2       12.1040    0.9830   63.1570 O.co2 140  ASP140     -0.2456
     31  N         13.4460   -2.8200   59.4980 N.am  141  HIS141     -0.1961
     32  CA        13.6270   -2.5460   58.0940 C.3   141  HIS141      0.1787
     33  C         12.4220   -3.0340   57.2950 C.2   141  HIS141      0.2620
     34  O         11.3460   -3.1500   57.8720 O.2   141  HIS141     -0.2715
     35  CB        15.0100   -2.9900   57.5810 C.3   141  HIS141      0.0785
     36  CG        15.3350   -4.4250   57.8230 C.ar  141  HIS141      0.0821
     37  ND1       14.7130   -5.1810   58.7900 N.ar  141  HIS141     -0.2267
     38  CD2       16.2930   -5.2180   57.2740 C.ar  141  HIS141      0.1154
     39  CE1       15.2450   -6.3970   58.7950 C.ar  141  HIS141      0.1986
     40  NE2       16.2010   -6.4530   57.8740 N.ar  141  HIS141     -0.2212
     41  N         12.5250   -3.2750   55.9870 N.am  142  TRP142     -0.1960
     42  CA        11.3360   -3.7390   55.2830 C.3   142  TRP142      0.1771
     43  C         10.9470   -5.0940   55.8720 C.2   142  TRP142      0.2619
     44  O         11.8000   -5.9370   56.1550 O.2   142  TRP142     -0.2715
     45  CB        11.5420   -3.8320   53.7870 C.3   142  TRP142      0.0590
     46  CG        11.8710   -2.5640   53.0510 C.ar  142  TRP142      0.0006
     47  CD1       12.5410   -2.5240   51.8820 C.ar  142  TRP142      0.0946
     48  CD2       11.6210   -1.1750   53.4050 C.ar  142  TRP142      0.0152
     49  NE1       12.7010   -1.2360   51.4570 N.ar  142  TRP142     -0.2442
     50  CE2       12.1480   -0.3840   52.3730 C.ar  142  TRP142      0.0810
     51  CE3       10.9950   -0.5160   54.4710 C.ar  142  TRP142      0.0012
     52  CZ2       12.1030    1.0100   52.3810 C.ar  142  TRP142      0.0191
     53  CZ3       10.9440    0.8780   54.4600 C.ar  142  TRP142      0.0001
     54  CH2       11.4690    1.6210   53.4130 C.ar  142  TRP142      0.0015
     55  N          9.6580   -5.2900   56.1270 N.am  143  LYS143     -0.1977
     56  CA         9.2210   -6.4260   56.9470 C.3   143  LYS143      0.1596
     57  C          9.4900   -7.7970   56.3330 C.2   143  LYS143      0.2287
     58  O          9.6570   -8.7670   57.0850 O.2   143  LYS143     -0.2864
     59  CB         7.7540   -6.2940   57.3940 C.3   143  LYS143      0.0298
     60  CG         7.3560   -4.9420   57.9920 C.3   143  LYS143      0.0038
     61  CD         8.3850   -4.3870   58.9430 C.3   143  LYS143      0.0206
     62  CE         8.1970   -2.9360   59.2390 C.3   143  LYS143      0.1093
     63  NZ         9.4580   -2.3630   59.8490 N.3   143  LYS143     -0.1314
     64  N         10.2250   -4.5280   65.5520 N.3   168  ASP168     -0.1225
     65  CA         9.1470   -3.5650   65.4140 C.3   168  ASP168      0.1805
     66  C          8.0560   -4.0850   64.4910 C.2   168  ASP168      0.2597
     67  O          8.3050   -4.8610   63.5810 O.2   168  ASP168     -0.2718
     68  CB         9.6640   -2.2280   64.8600 C.3   168  ASP168      0.1424
     69  CG         8.6930   -1.0690   65.1300 C.2   168  ASP168      0.3668
     70  OD1        7.8470   -1.1820   66.0700 O.co2 168  ASP168     -0.2456
     71  OD2        8.7290   -0.0010   64.4390 O.co2 168  ASP168     -0.2456
     72  N          6.8340   -3.5830   64.7010 N.am  169  ASN169     -0.1974
     73  CA         5.7680   -3.7040   63.6910 C.3   169  ASN169      0.1688
     74  C          5.2300   -5.1090   63.5110 C.2   169  ASN169      0.2292
     75  O          4.7270   -5.4780   62.4600 O.2   169  ASN169     -0.2864
     76  CB         6.1980   -3.1280   62.3520 C.3   169  ASN169      0.1181
     77  CG         6.5840   -1.7260   62.4580 C.2   169  ASN169      0.2629
     78  OD1        5.7400   -0.8420   62.8170 O.2   169  ASN169     -0.2716
     79  ND2        7.8370   -1.4390   62.1820 N.am  169  ASN169     -0.0877
     80  N          2.6800   -2.8900   60.2120 N.3   173  PRO173     -0.2116
     81  CA         1.8960   -3.6330   59.2190 C.3   173  PRO173      0.1372
     82  C          1.7870   -5.1430   59.4400 C.2   173  PRO173      0.2244
     83  O          0.9680   -5.7870   58.7880 O.2   173  PRO173     -0.2868
     84  CB         2.6690   -3.3560   57.9120 C.3   173  PRO173      0.0268
     85  CG         3.3660   -2.0390   58.1770 C.3   173  PRO173      0.0207
     86  CD         3.8100   -2.1800   59.5730 C.3   173  PRO173      0.0892
     87  N          1.2800    2.0500   67.2600 N.3   197  LEU197     -0.1231
     88  CA         1.9870    2.5040   66.0770 C.3   197  LEU197      0.1693
     89  C          2.3440    3.9630   66.2500 C.2   197  LEU197      0.2591
     90  O          1.5780    4.7480   66.7740 O.2   197  LEU197     -0.2718
     91  CB         1.1100    2.3100   64.8370 C.3   197  LEU197      0.0284
     92  CG         1.8460    2.4000   63.4980 C.3   197  LEU197      0.0019
     93  CD1        2.8190    1.2770   63.3130 C.3   197  LEU197      0.0001
     94  CD2        0.8860    2.3830   62.3510 C.3   197  LEU197      0.0001
     95  N          3.5680    4.3040   65.8760 N.am  198  GLU198     -0.1979
     96  CA         4.0620    5.6540   66.0040 C.3   198  GLU198      0.1602
     97  C          3.0670    6.7380   65.5800 C.2   198  GLU198      0.2287
     98  O          2.5330    6.7140   64.4750 O.2   198  GLU198     -0.2864
     99  CB         5.3930    5.7910   65.2850 C.3   198  GLU198      0.0415
    100  CG         5.3840    5.3870   63.8330 C.3   198  GLU198      0.1163
    101  CD         5.8860    3.9870   63.6000 C.2   198  GLU198      0.3649
    102  OE1        5.6350    3.0820   64.4290 O.co2 198  GLU198     -0.2457
    103  OE2        6.5010    3.7640   62.5330 O.co2 198  GLU198     -0.2457
@<TRIPOS>BOND
     1    49    47   ar
     2    49    50   ar
     3    47    46   ar
     4    50    52   ar
     5    50    48   ar
     6    52    54   ar
     7    46    48   ar
     8    46    45    1
     9    48    51   ar
    10    54    53   ar
    11    45    42    1
    12    53    51   ar
    13    42    43    1
    14    42    41    1
    15    22    21    1
    16    43    55   am
    17    43    44    2
    18    41    33   am
    19    55    56    1
    20    57    56    1
    21    57    58    2
    22    21    20    1
    23    56    59    1
    24    38    36   ar
    25    38    40   ar
    26    33    34    2
    27    33    32    1
    28    59    60    1
    29    35    36    1
    30    35    32    1
    31    36    37   ar
    32    40    39   ar
    33    84    85    1
    34    84    81    1
    35    60    61    1
    36    32    31    1
    37    13    11   ar
    38    13    14   ar
    39    85    86    1
    40    20    19    1
    41    11     8   ar
    42     4     3    2
    43    83    82    2
    44    37    39   ar
    45    61    62    1
    46    14    12   ar
    47    19    16    1
    48    81    82    1
    49    81    80    1
    50    62    63    1
    51    31    25   am
    52     3     2    1
    53     8     6   ar
    54     8    10   ar
    55     5     2    1
    56     5     6    1
    57    86    80    1
    58     1     2    1
    59    15    16    1
    60    26    25    2
    61     6     7   ar
    62    12    10   ar
    63    16    17    1
    64    25    24    1
    65    10     9   ar
    66    17    18    2
    67     7     9   ar
    68    24    23    1
    69    24    27    1
    70    79    77   am
    71    29    28   ar
    72    94    92    1
    73    76    77    1
    74    76    73    1
    75    77    78    2
    76    75    74    2
    77   103   101   ar
    78    28    27    1
    79    28    30   ar
    80    93    92    1
    81    92    91    1
    82    74    73    1
    83    67    66    2
    84   101   100    1
    85   101   102   ar
    86    73    72    1
    87   100    99    1
    88    71    69   ar
    89    98    97    2
    90    66    72   am
    91    66    65    1
    92    91    88    1
    93    68    69    1
    94    68    65    1
    95    69    70   ar
    96    99    96    1
    97    65    64    1
    98    97    96    1
    99    95    96    1
   100    95    89   am
   101    88    89    1
   102    88    87    1
   103    89    90    2
