@<TRIPOS>MOLECULE
tmp/2cl8B00.pdb
 85 80 0 0 0
SMALL
GASTEIGER

@<TRIPOS>ATOM
      1  N        -49.3030   -2.1610   -5.4370 N.3    32  SER32      -0.1217
      2  CA       -48.6950   -0.9780   -4.9060 C.3    32  SER32       0.1889
      3  C        -49.6010   -0.3120   -3.8540 C.2    32  SER32       0.2288
      4  O        -49.1320    0.2520   -2.8510 O.2    32  SER32      -0.2866
      5  CB       -48.4150   -0.0480   -6.0460 C.3    32  SER32       0.2089
      6  OG       -47.5910    0.9340   -5.5240 O.3    32  SER32      -0.2183
      7  N        -49.0880   -1.5770   -0.6040 N.3    35  GLY35      -0.1210
      8  CA       -47.7170   -1.3250   -0.2000 C.3    35  GLY35       0.1956
      9  C        -46.7660   -2.4150   -0.6240 C.2    35  GLY35       0.2612
     10  O        -45.9160   -2.8020    0.1350 O.2    35  GLY35      -0.2717
     11  N        -46.9330   -2.9520   -1.8270 N.am   36  ALA36      -0.1965
     12  CA       -46.0380   -3.9980   -2.3450 C.3    36  ALA36       0.1728
     13  C        -45.7680   -3.6850   -3.8050 C.2    36  ALA36       0.2616
     14  O        -46.1310   -2.5960   -4.3010 O.2    36  ALA36      -0.2715
     15  CB       -46.6820   -5.3420   -2.2220 C.3    36  ALA36       0.0334
     16  N        -45.1350   -4.6380   -4.4820 N.am   37  HIS37      -0.1973
     17  CA       -44.8520   -4.5640   -5.9020 C.3    37  HIS37       0.1656
     18  C        -45.2180   -5.8620   -6.6180 C.2    37  HIS37       0.2291
     19  O        -45.5600   -6.8600   -5.9880 O.2    37  HIS37      -0.2864
     20  CB       -43.3820   -4.2470   -6.1110 C.3    37  HIS37       0.0771
     21  CG       -42.4380   -5.1760   -5.4190 C.ar   37  HIS37       0.0820
     22  ND1      -42.1320   -6.4240   -5.9060 N.ar   37  HIS37      -0.2267
     23  CD2      -41.6580   -5.0040   -4.3220 C.ar   37  HIS37       0.1154
     24  CE1      -41.2390   -7.0010   -5.1170 C.ar   37  HIS37       0.1986
     25  NE2      -40.9320   -6.1590   -4.1490 N.ar   37  HIS37      -0.2212
     26  N        -40.9450  -10.2420   -8.1320 N.3    40  LYS40      -0.1245
     27  CA       -39.6290  -10.2640   -8.7430 C.3    40  LYS40       0.1561
     28  C        -38.9610  -11.5540   -8.3280 C.2    40  LYS40       0.2260
     29  O        -38.9100  -11.9180   -7.1110 O.2    40  LYS40      -0.2867
     30  CB       -38.8080   -9.0840   -8.2920 C.3    40  LYS40       0.0271
     31  CG       -37.3350   -9.4090   -8.1890 C.3    40  LYS40       0.0035
     32  CD       -36.4510   -8.1960   -8.3510 C.3    40  LYS40       0.0206
     33  CE       -35.0760   -8.6260   -8.7830 C.3    40  LYS40       0.1093
     34  NZ       -34.0870   -7.7260   -8.1690 N.3    40  LYS40      -0.1314
     35  N        -35.8780  -13.6860   -7.8390 N.3    42  ASP42      -0.1239
     36  CA       -34.4230  -13.5600   -7.7270 C.3    42  ASP42       0.1674
     37  C        -33.6450  -14.8800   -7.8300 C.2    42  ASP42       0.2266
     38  O        -32.4260  -14.8490   -7.7940 O.2    42  ASP42      -0.2867
     39  CB       -34.0040  -12.8540   -6.4320 C.3    42  ASP42       0.1410
     40  CG       -34.9450  -11.7290   -6.0570 C.2    42  ASP42       0.3668
     41  OD1      -34.5370  -10.5490   -6.1460 O.co2  42  ASP42      -0.2456
     42  OD2      -36.1010  -11.9790   -5.6520 O.co2  42  ASP42      -0.2456
     43  N        -39.3720   -4.9150  -11.7460 N.3    78  GLU78      -0.1231
     44  CA       -40.1230   -3.7700  -11.2350 C.3    78  GLU78       0.1699
     45  C        -39.1590   -2.8470  -10.5630 C.2    78  GLU78       0.2592
     46  O        -39.3890   -1.6490  -10.4970 O.2    78  GLU78      -0.2718
     47  CB       -41.1590   -4.1860  -10.2070 C.3    78  GLU78       0.0402
     48  CG       -40.7020   -5.3100   -9.1570 C.3    78  GLU78       0.1161
     49  CD       -39.8330   -4.8200   -7.9760 C.2    78  GLU78       0.3649
     50  OE1      -39.6830   -3.5870   -7.8090 O.co2  78  GLU78      -0.2457
     51  OE2      -39.2860   -5.6610   -7.1990 O.co2  78  GLU78      -0.2457
     52  N        -38.0740   -3.4110  -10.0440 N.am   79  ASP79      -0.1974
     53  CA       -37.1530   -2.6520   -9.2360 C.3    79  ASP79       0.1709
     54  C        -36.0480   -2.0190  -10.0750 C.2    79  ASP79       0.2293
     55  O        -35.2340   -1.2600   -9.5420 O.2    79  ASP79      -0.2864
     56  CB       -36.5810   -3.5080   -8.1080 C.3    79  ASP79       0.1436
     57  CG       -35.4760   -4.4430   -8.5740 C.2    79  ASP79       0.3671
     58  OD1      -34.5430   -4.7480   -7.7760 O.co2  79  ASP79      -0.2456
     59  OD2      -35.5470   -4.8660   -9.7470 O.co2  79  ASP79      -0.2456
     60  N        -41.1440   -7.6690    0.4220 N.3   127  GLU127     -0.1231
     61  CA       -40.0190   -8.3710    1.0550 C.3   127  GLU127      0.1699
     62  C        -39.9520   -8.0250    2.5470 C.2   127  GLU127      0.2592
     63  O        -40.1400   -6.8680    2.9160 O.2   127  GLU127     -0.2718
     64  CB       -38.6840   -8.0100    0.3870 C.3   127  GLU127      0.0402
     65  CG       -38.5150   -8.4410   -1.0890 C.3   127  GLU127      0.1161
     66  CD       -38.9070   -7.3430   -2.0880 C.2   127  GLU127      0.3649
     67  OE1      -39.6660   -6.4210   -1.6990 O.co2 127  GLU127     -0.2457
     68  OE2      -38.4690   -7.3950   -3.2700 O.co2 127  GLU127     -0.2457
     69  N        -39.6870   -9.0180    3.3960 N.am  128  LEU128     -0.1966
     70  CA       -39.4910   -8.7710    4.8220 C.3   128  LEU128      0.1728
     71  C        -38.1080   -8.1380    5.1040 C.2   128  LEU128      0.2616
     72  O        -37.9820   -7.0750    5.7450 O.2   128  LEU128     -0.2715
     73  CB       -39.6160  -10.0680    5.6090 C.3   128  LEU128      0.0311
     74  CG       -40.9130  -10.8590    5.5180 C.3   128  LEU128      0.0022
     75  CD1      -40.7030  -12.2430    6.2070 C.3   128  LEU128      0.0001
     76  CD2      -42.0770  -10.0600    6.0960 C.3   128  LEU128      0.0001
     77  N        -37.0280   -8.7490    4.6830 N.am  129  LYS129     -0.1977
     78  CA       -35.6580   -8.2670    4.8590 C.3   129  LYS129      0.1596
     79  C        -34.8100   -8.8730    3.7410 C.2   129  LYS129      0.2287
     80  O        -35.0170  -10.0360    3.3900 O.2   129  LYS129     -0.2864
     81  CB       -35.0730   -8.6750    6.1980 C.3   129  LYS129      0.0298
     82  CG       -34.9180  -10.1420    6.4000 C.3   129  LYS129      0.0038
     83  CD       -34.0730  -10.4030    7.6500 C.3   129  LYS129      0.0206
     84  CE       -34.1350  -11.8830    7.9130 C.3   129  LYS129      0.1093
     85  NZ       -33.1710  -12.1850    9.0000 N.3   129  LYS129     -0.1314
@<TRIPOS>BOND
     1    43    44    1
     2    44    45    1
     3    44    47    1
     4    45    46    2
     5    45    52   am
     6    47    48    1
     7    54    55    2
     8    54    53    1
     9    52    53    1
    10    59    57   ar
    11    53    56    1
    12    48    49    1
    13    33    32    1
    14    33    34    1
    15    27    28    1
    16    27    30    1
    17    27    26    1
    18    57    56    1
    19    57    58   ar
    20    32    31    1
    21    28    29    2
    22    30    31    1
    23    49    50   ar
    24    49    51   ar
    25    35    36    1
    26    37    38    2
    27    37    36    1
    28    36    39    1
    29    18    19    2
    30    18    17    1
    31    39    40    1
    32    41    40   ar
    33    20    17    1
    34    20    21    1
    35    40    42   ar
    36     5     6    1
    37     5     2    1
    38    22    21   ar
    39    22    24   ar
    40    17    16    1
    41     1     2    1
    42    21    23   ar
    43    24    25   ar
    44     2     3    1
    45    16    13   am
    46    23    25   ar
    47    14    13    2
    48     3     4    2
    49    13    12    1
    50    68    66   ar
    51    12    15    1
    52    12    11    1
    53    66    67   ar
    54    66    65    1
    55    11     9   am
    56    65    64    1
    57     9     8    1
    58     9    10    2
    59     7     8    1
    60    64    61    1
    61    60    61    1
    62    61    62    1
    63    62    63    2
    64    62    69   am
    65    80    79    2
    66    69    70    1
    67    79    78    1
    68    77    78    1
    69    77    71   am
    70    70    71    1
    71    70    73    1
    72    78    81    1
    73    71    72    2
    74    74    73    1
    75    74    76    1
    76    74    75    1
    77    81    82    1
    78    82    83    1
    79    83    84    1
    80    84    85    1
