@<TRIPOS>MOLECULE
tmp/2clmA00.pdb
 142 133 0 0 0
SMALL
GASTEIGER

@<TRIPOS>ATOM
      1  N         45.1860   33.2340   16.3930 N.3    21  PHE21      -0.1241
      2  CA        46.4380   32.8620   17.0330 C.3    21  PHE21       0.1605
      3  C         47.4300   34.0040   16.9320 C.2    21  PHE21       0.2264
      4  O         47.5180   34.6720   15.9040 O.2    21  PHE21      -0.2867
      5  CB        47.0640   31.6190   16.3870 C.3    21  PHE21       0.0534
      6  CG        48.5280   31.4390   16.7250 C.ar   21  PHE21      -0.0203
      7  CD1       49.5090   32.1890   16.0760 C.ar   21  PHE21      -0.0042
      8  CD2       48.9200   30.5720   17.7390 C.ar   21  PHE21      -0.0042
      9  CE1       50.8500   32.0820   16.4360 C.ar   21  PHE21      -0.0003
     10  CE2       50.2600   30.4580   18.1050 C.ar   21  PHE21      -0.0003
     11  CZ        51.2270   31.2150   17.4540 C.ar   21  PHE21      -0.0000
     12  N         44.4290   31.3000   20.8900 N.3    48  GLU48      -0.1245
     13  CA        45.5010   30.3190   20.8300 C.3    48  GLU48       0.1567
     14  C         46.7330   31.2080   20.9060 C.2    48  GLU48       0.2260
     15  O         46.9450   32.0660   20.0470 O.2    48  GLU48      -0.2867
     16  CB        45.4910   29.5250   19.5230 C.3    48  GLU48       0.0388
     17  CG        46.5370   28.4120   19.5330 C.3    48  GLU48       0.1160
     18  CD        46.6000   27.6300   18.2370 C.2    48  GLU48       0.3649
     19  OE1       46.8050   28.2540   17.1760 O.co2  48  GLU48      -0.2457
     20  OE2       46.4560   26.3890   18.2840 O.co2  48  GLU48      -0.2457
     21  N         57.7590   23.8490   13.3810 N.3    58  ALA58      -0.1231
     22  CA        56.4300   23.5350   12.8690 C.3    58  ALA58       0.1694
     23  C         55.7380   24.7810   12.3300 C.2    58  ALA58       0.2592
     24  O         54.5710   24.7350   11.9400 O.2    58  ALA58      -0.2718
     25  CB        55.5850   22.9060   13.9670 C.3    58  ALA58       0.0304
     26  N         56.4660   25.8910   12.2970 N.am   59  ASP59      -0.1974
     27  CA        55.9080   27.1480   11.8200 C.3    59  ASP59       0.1709
     28  C         56.5570   27.6880   10.5540 C.2    59  ASP59       0.2293
     29  O         57.7640   27.5400   10.3410 O.2    59  ASP59      -0.2864
     30  CB        56.0010   28.2060   12.9220 C.3    59  ASP59       0.1436
     31  CG        55.0240   27.9540   14.0500 C.2    59  ASP59       0.3671
     32  OD1       53.8030   28.0690   13.8090 O.co2  59  ASP59      -0.2456
     33  OD2       55.4760   27.6340   15.1710 O.co2  59  ASP59      -0.2456
     34  N         55.1750   33.1530   11.2410 N.3    63  ILE63      -0.1245
     35  CA        55.2620   32.9420   12.6790 C.3    63  ILE63       0.1561
     36  C         56.7030   32.8560   13.1730 C.2    63  ILE63       0.2260
     37  O         56.9940   33.2170   14.3140 O.2    63  ILE63      -0.2867
     38  CB        54.4540   31.6980   13.0990 C.3    63  ILE63       0.0252
     39  CG1       52.9640   32.0420   13.0110 C.3    63  ILE63       0.0019
     40  CG2       54.8250   31.2600   14.5130 C.3    63  ILE63       0.0019
     41  CD1       52.0550   30.9750   13.5330 C.3    63  ILE63       0.0001
     42  N         50.0770   27.1410   22.4530 N.3    99  LEU99      -0.1245
     43  CA        50.7230   26.3740   21.3970 C.3    99  LEU99       0.1561
     44  C         52.1450   26.3090   21.9260 C.2    99  LEU99       0.2260
     45  O         52.8330   27.3270   22.0070 O.2    99  LEU99      -0.2867
     46  CB        50.6770   27.1230   20.0600 C.3    99  LEU99       0.0270
     47  CG        51.3350   26.4320   18.8560 C.3    99  LEU99       0.0019
     48  CD1       52.8460   26.4490   19.0070 C.3    99  LEU99       0.0001
     49  CD2       50.8220   25.0040   18.7260 C.3    99  LEU99       0.0001
     50  N         48.5160   22.6230   23.2710 N.3   126  LEU126     -0.1245
     51  CA        48.8160   21.8100   22.1010 C.3   126  LEU126      0.1561
     52  C         50.3370   21.8380   22.0180 C.2   126  LEU126      0.2260
     53  O         50.9330   22.9090   21.9200 O.2   126  LEU126     -0.2867
     54  CB        48.2070   22.4310   20.8310 C.3   126  LEU126      0.0270
     55  CG        48.1960   21.5770   19.5540 C.3   126  LEU126      0.0019
     56  CD1       47.4980   22.3340   18.4330 C.3   126  LEU126      0.0001
     57  CD2       49.6160   21.2290   19.1400 C.3   126  LEU126      0.0001
     58  N         53.2180   21.1190   19.7960 N.3   128  ALA128     -0.1245
     59  CA        53.5000   20.9200   18.3780 C.3   128  ALA128      0.1562
     60  C         54.2950   19.6840   17.9830 C.2   128  ALA128      0.2260
     61  O         53.9320   18.9910   17.0280 O.2   128  ALA128     -0.2867
     62  CB        54.1860   22.1650   17.8250 C.3   128  ALA128      0.0290
     63  N         46.4040   17.0300   17.0530 N.3   152  ILE152     -0.1245
     64  CA        46.2780   17.3760   15.6510 C.3   152  ILE152      0.1561
     65  C         45.8170   16.1860   14.8200 C.2   152  ILE152      0.2260
     66  O         46.4410   15.1260   14.8360 O.2   152  ILE152     -0.2867
     67  CB        47.6240   17.8830   15.0950 C.3   152  ILE152      0.0252
     68  CG1       47.9790   19.2140   15.7590 C.3   152  ILE152      0.0019
     69  CG2       47.5530   18.0310   13.5840 C.3   152  ILE152      0.0019
     70  CD1       49.3280   19.7450   15.3770 C.3   152  ILE152      0.0001
     71  N         42.1120   19.5830   16.8520 N.3   174  TYR174     -0.1241
     72  CA        42.7210   20.4670   15.8680 C.3   174  TYR174      0.1605
     73  C         42.7530   19.7590   14.5230 C.2   174  TYR174      0.2264
     74  O         43.5930   18.8900   14.2870 O.2   174  TYR174     -0.2867
     75  CB        44.1410   20.8540   16.2900 C.3   174  TYR174      0.0534
     76  CG        44.6910   22.0600   15.5560 C.ar  174  TYR174     -0.0201
     77  CD1       44.8590   22.0460   14.1710 C.ar  174  TYR174     -0.0009
     78  CD2       45.0400   23.2190   16.2480 C.ar  174  TYR174     -0.0009
     79  CE1       45.3610   23.1590   13.4930 C.ar  174  TYR174      0.0417
     80  CE2       45.5410   24.3350   15.5810 C.ar  174  TYR174      0.0417
     81  CZ        45.6990   24.2980   14.2050 C.ar  174  TYR174      0.1957
     82  OH        46.1990   25.3970   13.5420 O.3   174  TYR174     -0.2866
     83  N         43.6870   19.6340   10.8660 N.3   176  LEU176     -0.1245
     84  CA        44.5660   20.2450    9.8700 C.3   176  LEU176      0.1561
     85  C         43.8190   20.4190    8.5540 C.2   176  LEU176      0.2260
     86  O         43.0110   19.5670    8.1700 O.2   176  LEU176     -0.2867
     87  CB        45.8100   19.3800    9.6390 C.3   176  LEU176      0.0270
     88  CG        46.9960   19.5310   10.5960 C.3   176  LEU176      0.0019
     89  CD1       48.0660   18.4960   10.2640 C.3   176  LEU176      0.0001
     90  CD2       47.5700   20.9350   10.4770 C.3   176  LEU176      0.0001
     91  N         45.3060   26.0980    9.9250 N.3   196  PHE196     -0.1227
     92  CA        46.2780   26.0880    8.8330 C.3   196  PHE196      0.1736
     93  C         45.7040   26.6310    7.5260 C.2   196  PHE196      0.2596
     94  O         44.8090   26.0310    6.9340 O.2   196  PHE196     -0.2718
     95  CB        46.8170   24.6690    8.5990 C.3   196  PHE196      0.0547
     96  CG        47.9690   24.2950    9.4900 C.ar  196  PHE196     -0.0202
     97  CD1       47.8720   24.4170   10.8720 C.ar  196  PHE196     -0.0042
     98  CD2       49.1530   23.8070    8.9430 C.ar  196  PHE196     -0.0042
     99  CE1       48.9370   24.0560   11.6970 C.ar  196  PHE196     -0.0003
    100  CE2       50.2250   23.4430    9.7590 C.ar  196  PHE196     -0.0003
    101  CZ        50.1160   23.5690   11.1390 C.ar  196  PHE196     -0.0000
    102  N         46.2210   27.7740    7.0840 N.am  197  GLY197     -0.1942
    103  CA        45.7640   28.3630    5.8340 C.3   197  GLY197      0.2014
    104  C         44.4600   29.1450    5.8380 C.2   197  GLY197      0.2638
    105  O         44.0610   29.6680    4.7980 O.2   197  GLY197     -0.2714
    106  N         43.7880   29.2290    6.9840 N.am  198  ILE198     -0.1977
    107  CA        42.5310   29.9720    7.0700 C.3   198  ILE198      0.1596
    108  C         42.8350   31.4700    7.1230 C.2   198  ILE198      0.2287
    109  O         43.3280   31.9680    8.1350 O.2   198  ILE198     -0.2864
    110  CB        41.7370   29.5850    8.3420 C.3   198  ILE198      0.0276
    111  CG1       41.5040   28.0710    8.3830 C.3   198  ILE198      0.0022
    112  CG2       40.4050   30.3260    8.3660 C.3   198  ILE198      0.0022
    113  CD1       40.6090   27.5450    7.2810 C.3   198  ILE198      0.0001
    114  N         40.4510   28.2670   13.0450 N.3   216  ILE216     -0.1231
    115  CA        41.5660   28.9630   13.6790 C.3   216  ILE216      0.1692
    116  C         42.3850   29.6830   12.6130 C.2   216  ILE216      0.2593
    117  O         42.6480   29.1300   11.5470 O.2   216  ILE216     -0.2718
    118  CB        42.4940   27.9690   14.4200 C.3   216  ILE216      0.0266
    119  CG1       41.7460   27.3390   15.5950 C.3   216  ILE216      0.0019
    120  CG2       43.7640   28.6850   14.8910 C.3   216  ILE216      0.0020
    121  CD1       42.5140   26.2400   16.2980 C.3   216  ILE216      0.0001
    122  N         42.7900   30.9140   12.9050 N.am  217  SER217     -0.1938
    123  CA        43.5830   31.7000   11.9650 C.3   217  SER217      0.2055
    124  C         44.7430   32.3660   12.6880 C.2   217  SER217      0.2644
    125  O         44.5410   33.0480   13.6910 O.2   217  SER217     -0.2714
    126  CB        42.7090   32.7690   11.3030 C.3   217  SER217      0.2130
    127  OG        43.4620   33.5550   10.3950 O.3   217  SER217     -0.2179
    128  N         45.9550   32.1810   12.1730 N.am  218  GLY218     -0.1939
    129  CA        47.1140   32.7710   12.8200 C.3   218  GLY218      0.2014
    130  C         47.9860   33.6360   11.9340 C.2   218  GLY218      0.2640
    131  O         48.0770   34.8450   12.1410 O.2   218  GLY218     -0.2714
    132  N         48.6350   33.0210   10.9500 N.am  219  SER219     -0.1935
    133  CA        49.5140   33.7530   10.0440 C.3   219  SER219      0.2055
    134  C         48.8690   35.0200    9.4990 C.2   219  SER219      0.2642
    135  O         49.5020   36.0710    9.4520 O.2   219  SER219     -0.2714
    136  CB        49.9500   32.8540    8.8870 C.3   219  SER219      0.2130
    137  OG        50.8160   31.8320    9.3490 O.3   219  SER219     -0.2179
    138  N         47.6100   34.9120    9.0860 N.am  220  ALA220     -0.1977
    139  CA        46.8810   36.0560    8.5510 C.3   220  ALA220      0.1597
    140  C         46.8260   37.1690    9.5930 C.2   220  ALA220      0.2287
    141  O         46.8920   38.3520    9.2600 O.2   220  ALA220     -0.2864
    142  CB        45.4700   35.6350    8.1590 C.3   220  ALA220      0.0319
@<TRIPOS>BOND
     1   105   104    2
     2   103   104    1
     3   103   102    1
     4   104   106   am
     5    94    93    2
     6   106   107    1
     7   107   108    1
     8   107   110    1
     9   102    93   am
    10   108   109    2
    11   113   111    1
    12    93    92    1
    13   142   139    1
    14    86    85    2
    15   110   112    1
    16   110   111    1
    17   139   138    1
    18   139   140    1
    19    85    84    1
    20    95    92    1
    21    95    96    1
    22    92    91    1
    23   136   137    1
    24   136   133    1
    25    98    96   ar
    26    98   100   ar
    27   138   134   am
    28   141   140    2
    29   135   134    2
    30    96    97   ar
    31   134   133    1
    32    87    84    1
    33    87    88    1
    34   100   101   ar
    35    84    83    1
    36   133   132    1
    37    89    88    1
    38    29    28    2
    39   127   126    1
    40    90    88    1
    41    28    27    1
    42    97    99   ar
    43   132   130   am
    44   101    99   ar
    45    34    35    1
    46   126   123    1
    47   117   116    2
    48    27    26    1
    49    27    30    1
    50   130   131    2
    51   130   129    1
    52    24    23    2
    53   123   124    1
    54   123   122    1
    55   128   124   am
    56   128   129    1
    57    26    23   am
    58    23    22    1
    59   116   122   am
    60   116   115    1
    61    35    38    1
    62    35    36    1
    63   124   125    2
    64    22    21    1
    65    22    25    1
    66    30    31    1
    67    39    38    1
    68    39    41    1
    69   114   115    1
    70    38    40    1
    71    36    37    2
    72    79    77   ar
    73    79    81   ar
    74    82    81    1
    75    69    67    1
    76   115   118    1
    77    32    31   ar
    78    31    33   ar
    79    77    76   ar
    80    81    80   ar
    81    74    73    2
    82   118   120    1
    83   118   119    1
    84    73    72    1
    85    65    66    2
    86    65    64    1
    87    67    64    1
    88    67    68    1
    89    70    68    1
    90    76    78   ar
    91    76    75    1
    92    80    78   ar
    93   119   121    1
    94    64    63    1
    95    72    75    1
    96    72    71    1
    97     4     3    2
    98     7     9   ar
    99     7     6   ar
   100     5     6    1
   101     5     2    1
   102     1     2    1
   103     9    11   ar
   104     6     8   ar
   105     3     2    1
   106    61    60    2
   107    19    18   ar
   108    11    10   ar
   109     8    10   ar
   110    62    59    1
   111    60    59    1
   112    18    20   ar
   113    18    17    1
   114    59    58    1
   115    56    55    1
   116    49    47    1
   117    47    48    1
   118    47    46    1
   119    57    55    1
   120    16    17    1
   121    16    13    1
   122    55    54    1
   123    15    14    2
   124    46    43    1
   125    13    12    1
   126    13    14    1
   127    54    51    1
   128    43    44    1
   129    43    42    1
   130    53    52    2
   131    44    45    2
   132    52    51    1
   133    51    50    1
