@<TRIPOS>MOLECULE
tmp/2cloA00.pdb
 153 143 0 0 0
SMALL
GASTEIGER

@<TRIPOS>ATOM
      1  N         45.4660   33.2750   16.3370 N.3    21  PHE21      -0.1241
      2  CA        46.7070   32.9180   17.0040 C.3    21  PHE21       0.1605
      3  C         47.7000   34.0600   16.9160 C.2    21  PHE21       0.2264
      4  O         47.7960   34.7400   15.8930 O.2    21  PHE21      -0.2867
      5  CB        47.3540   31.6770   16.3720 C.3    21  PHE21       0.0534
      6  CG        48.8210   31.5150   16.7180 C.ar   21  PHE21      -0.0203
      7  CD1       49.7990   32.2430   16.0390 C.ar   21  PHE21      -0.0042
      8  CD2       49.2170   30.6800   17.7580 C.ar   21  PHE21      -0.0042
      9  CE1       51.1450   32.1440   16.3930 C.ar   21  PHE21      -0.0003
     10  CE2       50.5610   30.5740   18.1190 C.ar   21  PHE21      -0.0003
     11  CZ        51.5260   31.3080   17.4360 C.ar   21  PHE21      -0.0000
     12  N         44.7340   31.3910   20.8130 N.3    48  GLU48      -0.1245
     13  CA        45.8100   30.4160   20.6770 C.3    48  GLU48       0.1567
     14  C         47.0520   31.2890   20.8290 C.2    48  GLU48       0.2260
     15  O         47.3530   32.1140   19.9680 O.2    48  GLU48      -0.2867
     16  CB        45.7780   29.7620   19.2930 C.3    48  GLU48       0.0388
     17  CG        46.5810   28.4820   19.2040 C.3    48  GLU48       0.1160
     18  CD        46.1560   27.4590   20.2420 C.2    48  GLU48       0.3649
     19  OE1       44.9400   27.2010   20.3730 O.co2  48  GLU48      -0.2457
     20  OE2       47.0430   26.9090   20.9280 O.co2  48  GLU48      -0.2457
     21  N         57.8840   23.7340   13.3580 N.3    58  ALA58      -0.1231
     22  CA        56.5750   23.3990   12.8110 C.3    58  ALA58       0.1694
     23  C         55.9050   24.6360   12.2260 C.2    58  ALA58       0.2592
     24  O         54.7870   24.5670   11.7090 O.2    58  ALA58      -0.2718
     25  CB        55.6950   22.7970   13.8990 C.3    58  ALA58       0.0304
     26  N         56.5980   25.7680   12.3060 N.am   59  ASP59      -0.1974
     27  CA        56.0670   27.0270   11.8020 C.3    59  ASP59       0.1709
     28  C         56.7540   27.5480   10.5470 C.2    59  ASP59       0.2293
     29  O         57.9450   27.3140   10.3260 O.2    59  ASP59      -0.2864
     30  CB        56.1550   28.0980   12.8890 C.3    59  ASP59       0.1436
     31  CG        55.1660   27.8720   14.0100 C.2    59  ASP59       0.3671
     32  OD1       53.9460   27.9330   13.7410 O.co2  59  ASP59      -0.2456
     33  OD2       55.6070   27.6370   15.1550 O.co2  59  ASP59      -0.2456
     34  N         55.3460   32.9600   11.3680 N.3    63  ILE63      -0.1245
     35  CA        55.4790   32.7140   12.8060 C.3    63  ILE63       0.1561
     36  C         56.9460   32.7060   13.2360 C.2    63  ILE63       0.2260
     37  O         57.2770   33.1070   14.3520 O.2    63  ILE63      -0.2867
     38  CB        54.8180   31.3690   13.2260 C.3    63  ILE63       0.0252
     39  CG1       53.2870   31.4830   13.2110 C.3    63  ILE63       0.0019
     40  CG2       55.2700   30.9840   14.6260 C.3    63  ILE63       0.0019
     41  CD1       52.7340   32.8420   12.8390 C.3    63  ILE63       0.0001
     42  N         50.3600   27.3100   22.5220 N.3    99  LEU99      -0.1245
     43  CA        51.0250   26.5620   21.4640 C.3    99  LEU99       0.1561
     44  C         52.4450   26.4600   21.9830 C.2    99  LEU99       0.2260
     45  O         53.1690   27.4520   22.0540 O.2    99  LEU99      -0.2867
     46  CB        50.9880   27.3220   20.1280 C.3    99  LEU99       0.0270
     47  CG        51.6270   26.5930   18.9380 C.3    99  LEU99       0.0019
     48  CD1       53.1440   26.5640   19.0790 C.3    99  LEU99       0.0001
     49  CD2       51.0670   25.1800   18.8400 C.3    99  LEU99       0.0001
     50  N         48.7630   22.7160   23.3200 N.3   126  LEU126     -0.1245
     51  CA        49.0620   21.9470   22.1170 C.3   126  LEU126      0.1561
     52  C         50.5860   21.9180   22.0290 C.2   126  LEU126      0.2260
     53  O         51.2210   22.9670   21.9420 O.2   126  LEU126     -0.2867
     54  CB        48.4780   22.6380   20.8760 C.3   126  LEU126      0.0270
     55  CG        48.4320   21.8450   19.5620 C.3   126  LEU126      0.0019
     56  CD1       47.6090   22.6240   18.5430 C.3   126  LEU126      0.0001
     57  CD2       49.8400   21.5850   19.0260 C.3   126  LEU126      0.0001
     58  N         53.3700   21.1810   19.7690 N.3   128  ALA128     -0.1245
     59  CA        53.6280   21.0080   18.3430 C.3   128  ALA128      0.1562
     60  C         54.4580   19.8090   17.9110 C.2   128  ALA128      0.2260
     61  O         54.1770   19.2130   16.8670 O.2   128  ALA128     -0.2867
     62  CB        54.2460   22.2880   17.7810 C.3   128  ALA128      0.0290
     63  N         46.3080   16.4320   17.2070 N.3   152  ILE152     -0.1245
     64  CA        46.2580   16.7990   15.8050 C.3   152  ILE152      0.1561
     65  C         45.7400   15.6980   14.8920 C.2   152  ILE152      0.2260
     66  O         46.2510   14.5820   14.9010 O.2   152  ILE152     -0.2867
     67  CB        47.6660   17.2070   15.3220 C.3   152  ILE152      0.0252
     68  CG1       48.3410   18.0880   16.3800 C.3   152  ILE152      0.0019
     69  CG2       47.5760   17.9050   13.9830 C.3   152  ILE152      0.0019
     70  CD1       47.5200   19.2930   16.8160 C.3   152  ILE152      0.0001
     71  N         42.1520   19.3430   16.8330 N.3   174  TYR174     -0.1241
     72  CA        42.7990   20.1630   15.8250 C.3   174  TYR174      0.1605
     73  C         42.7430   19.4600   14.4750 C.2   174  TYR174      0.2264
     74  O         43.3080   18.3790   14.2990 O.2   174  TYR174     -0.2867
     75  CB        44.2500   20.4340   16.2140 C.3   174  TYR174      0.0534
     76  CG        44.8250   21.6490   15.5320 C.ar  174  TYR174     -0.0201
     77  CD1       45.0430   21.6620   14.1550 C.ar  174  TYR174     -0.0009
     78  CD2       45.1170   22.8020   16.2570 C.ar  174  TYR174     -0.0009
     79  CE1       45.5360   22.7950   13.5180 C.ar  174  TYR174      0.0417
     80  CE2       45.6070   23.9390   15.6300 C.ar  174  TYR174      0.0417
     81  CZ        45.8140   23.9290   14.2590 C.ar  174  TYR174      0.1957
     82  OH        46.2950   25.0570   13.6360 O.3   174  TYR174     -0.2866
     83  N         43.9680   19.4980   10.8520 N.3   176  LEU176     -0.1245
     84  CA        44.9500   20.0590    9.9200 C.3   176  LEU176      0.1561
     85  C         44.3510   20.1810    8.5220 C.2   176  LEU176      0.2260
     86  O         43.8160   19.2110    7.9820 O.2   176  LEU176     -0.2867
     87  CB        46.2000   19.1740    9.8410 C.3   176  LEU176      0.0270
     88  CG        47.3140   19.3510   10.8750 C.3   176  LEU176      0.0019
     89  CD1       48.4300   18.3580   10.5720 C.3   176  LEU176      0.0001
     90  CD2       47.8580   20.7740   10.8250 C.3   176  LEU176      0.0001
     91  N         52.9500   25.9710    9.2250 N.3   182  THR182     -0.1203
     92  CA        52.0450   27.1190    9.2550 C.3   182  THR182      0.1994
     93  C         52.4160   28.1320    8.1780 C.2   182  THR182      0.2618
     94  O         53.5960   28.3480    7.9030 O.2   182  THR182     -0.2717
     95  CB        52.0910   27.8340   10.6230 C.3   182  THR182      0.1784
     96  OG1       53.3740   28.4500   10.7990 O.3   182  THR182     -0.2211
     97  CG2       51.8510   26.8430   11.7530 C.3   182  THR182      0.0376
     98  N         51.4040   28.7500    7.5740 N.am  183  GLY183     -0.1956
     99  CA        51.6550   29.7370    6.5380 C.3   183  GLY183      0.1869
    100  C         50.3860   30.2130    5.8570 C.2   183  GLY183      0.2309
    101  O         49.6180   29.4060    5.3260 O.2   183  GLY183     -0.2863
    102  N         45.6120   26.0140    9.8100 N.3   202  PHE202     -0.1227
    103  CA        46.6410   26.0090    8.7560 C.3   202  PHE202      0.1736
    104  C         46.0760   26.5190    7.4400 C.2   202  PHE202      0.2596
    105  O         45.1870   25.9020    6.8600 O.2   202  PHE202     -0.2718
    106  CB        47.2350   24.6070    8.5450 C.3   202  PHE202      0.0547
    107  CG        48.3670   24.2720    9.4800 C.ar  202  PHE202     -0.0202
    108  CD1       48.2450   24.4870   10.8480 C.ar  202  PHE202     -0.0042
    109  CD2       49.5460   23.7110    8.9930 C.ar  202  PHE202     -0.0042
    110  CE1       49.2810   24.1420   11.7240 C.ar  202  PHE202     -0.0003
    111  CE2       50.5870   23.3630    9.8580 C.ar  202  PHE202     -0.0003
    112  CZ        50.4530   23.5780   11.2220 C.ar  202  PHE202     -0.0000
    113  N         46.5880   27.6570    6.9870 N.am  203  GLY203     -0.1942
    114  CA        46.1310   28.2130    5.7300 C.3   203  GLY203      0.2014
    115  C         44.8440   29.0200    5.7510 C.2   203  GLY203      0.2638
    116  O         44.4670   29.5920    4.7260 O.2   203  GLY203     -0.2714
    117  N         44.1620   29.0790    6.8920 N.am  204  ILE204     -0.1977
    118  CA        42.9120   29.8390    6.9940 C.3   204  ILE204      0.1596
    119  C         43.2290   31.3320    7.0830 C.2   204  ILE204      0.2287
    120  O         43.7280   31.7980    8.1060 O.2   204  ILE204     -0.2864
    121  CB        42.1050   29.4300    8.2540 C.3   204  ILE204      0.0276
    122  CG1       41.7630   27.9380    8.1960 C.3   204  ILE204      0.0022
    123  CG2       40.8270   30.2750    8.3580 C.3   204  ILE204      0.0022
    124  CD1       40.8550   27.5490    7.0500 C.3   204  ILE204      0.0001
    125  N         40.7450   28.2790   12.9730 N.3   222  ILE222     -0.1231
    126  CA        41.8510   28.9890   13.6000 C.3   222  ILE222      0.1692
    127  C         42.6570   29.6860   12.5120 C.2   222  ILE222      0.2593
    128  O         42.8360   29.1440   11.4230 O.2   222  ILE222     -0.2718
    129  CB        42.7830   28.0180   14.3650 C.3   222  ILE222      0.0266
    130  CG1       42.0170   27.3600   15.5160 C.3   222  ILE222      0.0019
    131  CG2       44.0140   28.7700   14.8780 C.3   222  ILE222      0.0020
    132  CD1       42.8150   26.3140   16.2820 C.3   222  ILE222      0.0001
    133  N         43.1390   30.8890   12.8100 N.am  223  SER223     -0.1938
    134  CA        43.9370   31.6650   11.8600 C.3   223  SER223      0.2055
    135  C         45.1310   32.2700   12.5850 C.2   223  SER223      0.2644
    136  O         44.9650   32.9360   13.6050 O.2   223  SER223     -0.2714
    137  CB        43.0910   32.7840   11.2390 C.3   223  SER223      0.2130
    138  OG        43.8450   33.5350   10.2960 O.3   223  SER223     -0.2179
    139  N         46.3300   32.0430   12.0550 N.am  224  GLY224     -0.1939
    140  CA        47.5240   32.5760   12.6900 C.3   224  GLY224      0.2014
    141  C         48.3210   33.5300   11.8240 C.2   224  GLY224      0.2640
    142  O         48.2840   34.7430   12.0280 O.2   224  GLY224     -0.2714
    143  N         49.0440   32.9810   10.8530 N.am  225  SER225     -0.1935
    144  CA        49.8610   33.7870    9.9520 C.3   225  SER225      0.2055
    145  C         49.1230   35.0110    9.4160 C.2   225  SER225      0.2642
    146  O         49.6890   36.1010    9.3480 O.2   225  SER225     -0.2714
    147  CB        50.3650   32.9250    8.7910 C.3   225  SER225      0.2130
    148  OG        51.2540   31.9240    9.2600 O.3   225  SER225     -0.2179
    149  N         47.8610   34.8350    9.0410 N.am  226  ALA226     -0.1977
    150  CA        47.0700   35.9490    8.5270 C.3   226  ALA226      0.1597
    151  C         47.0040   37.0660    9.5650 C.2   226  ALA226      0.2287
    152  O         47.0300   38.2490    9.2220 O.2   226  ALA226     -0.2864
    153  CB        45.6680   35.4760    8.1750 C.3   226  ALA226      0.0319
@<TRIPOS>BOND
     1   116   115    2
     2   101   100    2
     3   114   115    1
     4   114   113    1
     5   115   117   am
     6   100    99    1
     7    99    98    1
     8   105   104    2
     9   117   118    1
    10   113   104   am
    11   118   119    1
    12   118   121    1
    13   124   122    1
    14   119   120    2
    15   104   103    1
    16    98    93   am
    17    94    93    2
    18    86    85    2
    19   153   150    1
    20    93    92    1
    21   122   121    1
    22   121   123    1
    23    85    84    1
    24   150   149    1
    25   150   151    1
    26   106   103    1
    27   106   107    1
    28   103   102    1
    29   147   148    1
    30   147   144    1
    31   109   107   ar
    32   109   111   ar
    33   149   145   am
    34   152   151    2
    35    91    92    1
    36    92    95    1
    37   146   145    2
    38   145   144    1
    39   107   108   ar
    40    87    84    1
    41    87    88    1
    42   111   112   ar
    43    84    83    1
    44   144   143    1
    45   138   137    1
    46    29    28    2
    47    28    27    1
    48    89    88    1
    49    95    96    1
    50    95    97    1
    51    90    88    1
    52   108   110   ar
    53   143   141   am
    54   112   110   ar
    55   137   134    1
    56    34    35    1
    57   128   127    2
    58    24    23    2
    59    27    26    1
    60    27    30    1
    61   141   142    2
    62   141   140    1
    63   134   135    1
    64   134   133    1
    65   139   135   am
    66   139   140    1
    67    23    26   am
    68    23    22    1
    69   127   133   am
    70   127   126    1
    71   135   136    2
    72    35    38    1
    73    35    36    1
    74    22    21    1
    75    22    25    1
    76    41    39    1
    77    30    31    1
    78   125   126    1
    79    39    38    1
    80    38    40    1
    81    36    37    2
    82    79    77   ar
    83    79    81   ar
    84   126   129    1
    85    82    81    1
    86    32    31   ar
    87    69    67    1
    88    31    33   ar
    89    77    76   ar
    90    81    80   ar
    91    74    73    2
    92   129   131    1
    93   129   130    1
    94    73    72    1
    95    65    66    2
    96    65    64    1
    97    67    64    1
    98    67    68    1
    99   130   132    1
   100    76    75    1
   101    76    78   ar
   102    80    78   ar
   103    64    63    1
   104    72    75    1
   105    72    71    1
   106     4     3    2
   107     7     9   ar
   108     7     6   ar
   109     1     2    1
   110     5     6    1
   111     5     2    1
   112    68    70    1
   113     9    11   ar
   114     6     8   ar
   115    61    60    2
   116     3     2    1
   117    11    10   ar
   118     8    10   ar
   119    62    59    1
   120    60    59    1
   121    59    58    1
   122    56    55    1
   123    49    47    1
   124    47    48    1
   125    47    46    1
   126    57    55    1
   127    17    16    1
   128    17    18    1
   129    16    13    1
   130    55    54    1
   131    15    14    2
   132    46    43    1
   133    18    19   ar
   134    18    20   ar
   135    13    12    1
   136    13    14    1
   137    54    51    1
   138    43    44    1
   139    43    42    1
   140    53    52    2
   141    44    45    2
   142    52    51    1
   143    51    50    1
