@<TRIPOS>MOLECULE
tmp/2clsA00.pdb
 185 184 0 0 0
SMALL
GASTEIGER

@<TRIPOS>ATOM
      1  N          4.8180  -14.0790   13.5870 N.3    13  VAL13      -0.1231
      2  CA         3.7420  -13.8380   14.5360 C.3    13  VAL13       0.1692
      3  C          2.4140  -14.1910   13.8810 C.2    13  VAL13       0.2592
      4  O          2.2210  -13.9060   12.7180 O.2    13  VAL13      -0.2718
      5  CB         3.8490  -12.3520   14.9810 C.3    13  VAL13       0.0266
      6  CG1        2.5000  -11.6770   15.1210 C.3    13  VAL13       0.0020
      7  CG2        4.7190  -12.2590   16.2410 C.3    13  VAL13       0.0020
      8  N          1.5310  -14.8690   14.6120 N.am   14  GLN14      -0.1966
      9  CA         0.1900  -15.2590   14.1360 C.3    14  GLN14       0.1733
     10  C          0.1090  -16.2360   12.9800 C.2    14  GLN14       0.2616
     11  O         -0.9680  -16.4010   12.4070 O.2    14  GLN14      -0.2715
     12  CB        -0.6630  -14.0310   13.7720 C.3    14  GLN14       0.0408
     13  CG        -0.9860  -13.1910   14.9510 C.3    14  GLN14       0.0908
     14  CD        -2.1850  -12.2800   14.7200 C.2    14  GLN14       0.2608
     15  OE1       -3.3170  -12.7410   14.4810 O.2    14  GLN14      -0.2717
     16  NE2       -1.9460  -10.9770   14.8390 N.am   14  GLN14      -0.0878
     17  N          1.2080  -16.8730   12.6170 N.am   15  CYS15      -0.1954
     18  CA         1.2080  -17.7890   11.4660 C.3    15  CYS15       0.1843
     19  C          0.5260  -19.1270   11.7350 C.2    15  CYS15       0.2626
     20  O          0.1250  -19.7900   10.7860 O.2    15  CYS15      -0.2714
     21  CB         2.6320  -17.9960   10.8860 C.3    15  CYS15       0.0997
     22  SG         3.7200  -19.1870   11.7490 S.3    15  CYS15      -0.0797
     23  N          0.3760  -19.5120   13.0050 N.am   16  GLY16      -0.1940
     24  CA        -0.3640  -20.7300   13.3890 C.3    16  GLY16       0.2014
     25  C          0.3840  -21.7990   14.1790 C.2    16  GLY16       0.2639
     26  O         -0.0810  -22.9270   14.2800 O.2    16  GLY16      -0.2714
     27  N          1.5460  -21.4450   14.7300 N.am   17  LYS17      -0.1963
     28  CA         2.4170  -22.3530   15.4830 C.3    17  LYS17       0.1728
     29  C          1.7750  -22.9110   16.7580 C.2    17  LYS17       0.2617
     30  O          1.6990  -24.1340   16.9340 O.2    17  LYS17      -0.2715
     31  CB         3.7060  -21.6430   15.8460 C.3    17  LYS17       0.0311
     32  CG         4.5390  -21.2040   14.6340 C.3    17  LYS17       0.0038
     33  CD         5.8810  -20.6370   15.0400 C.3    17  LYS17       0.0206
     34  CE         5.7810  -19.3740   15.8860 C.3    17  LYS17       0.1093
     35  NZ         5.1180  -18.2220   15.2520 N.3    17  LYS17      -0.1314
     36  N          1.2900  -22.0270   17.6170 N.am   18  THR18      -0.1937
     37  CA         0.6720  -22.4220   18.8770 C.3    18  THR18       0.2028
     38  C         -0.6210  -23.2080   18.6400 C.2    18  THR18       0.2642
     39  O         -0.8730  -24.1910   19.3430 O.2    18  THR18      -0.2714
     40  CB         0.4280  -21.2010   19.7650 C.3    18  THR18       0.1808
     41  OG1        1.6800  -20.5390   20.0180 O.3    18  THR18      -0.2208
     42  CG2       -0.2870  -21.5660   21.1190 C.3    18  THR18       0.0379
     43  N         -1.4170  -22.7960   17.6540 N.am   19  ALA19      -0.1977
     44  CA        -2.6680  -23.5030   17.3230 C.3    19  ALA19       0.1597
     45  C         -2.4070  -24.9810   16.9740 C.2    19  ALA19       0.2287
     46  O         -3.1150  -25.8780   17.4310 O.2    19  ALA19      -0.2864
     47  CB        -3.4090  -22.8100   16.1870 C.3    19  ALA19       0.0319
     48  N         -8.0910  -26.1120   20.4450 N.3    29  TYR29      -0.1228
     49  CA        -7.7980  -25.0620   19.4790 C.3    29  TYR29       0.1721
     50  C         -8.0190  -23.6930   20.1390 C.2    29  TYR29       0.2437
     51  O         -9.0340  -23.4890   20.7710 O.2    29  TYR29      -0.2733
     52  CB        -8.6770  -25.2220   18.2490 C.3    29  TYR29       0.0547
     53  CG        -8.4190  -24.1560   17.2230 C.ar   29  TYR29      -0.0200
     54  CD1       -7.3190  -24.2290   16.3590 C.ar   29  TYR29      -0.0009
     55  CD2       -9.2520  -23.0450   17.1360 C.ar   29  TYR29      -0.0009
     56  CE1       -7.0850  -23.2290   15.4250 C.ar   29  TYR29       0.0417
     57  CE2       -9.0140  -22.0460   16.2210 C.ar   29  TYR29       0.0417
     58  CZ        -7.9450  -22.1450   15.3720 C.ar   29  TYR29       0.1957
     59  OH        -7.7600  -21.1410   14.4770 O.3    29  TYR29      -0.2866
     60  N         -7.0560  -22.7610   20.0240 N.am   30  PRO30      -0.2718
     61  CA        -7.2440  -21.4040   20.5460 C.3    30  PRO30       0.1535
     62  C         -7.7210  -20.3930   19.4760 C.2    30  PRO30       0.2598
     63  O         -6.9120  -19.8800   18.6890 O.2    30  PRO30      -0.2715
     64  CB        -5.8270  -21.0550   21.0120 C.3    30  PRO30       0.0310
     65  CG        -4.9400  -21.7240   19.9530 C.3    30  PRO30       0.0237
     66  CD        -5.7000  -22.9300   19.4540 C.3    30  PRO30       0.0939
     67  N         -9.0150  -20.1090   19.4610 N.am   31  GLU31      -0.1964
     68  CA        -9.6390  -19.1730   18.5000 C.3    31  GLU31       0.1733
     69  C         -9.1720  -17.7230   18.6820 C.2    31  GLU31       0.2617
     70  O         -9.0940  -16.9710   17.7050 O.2    31  GLU31      -0.2715
     71  CB       -11.1820  -19.2210   18.6340 C.3    31  GLU31       0.0429
     72  CG       -11.8660  -20.4560   18.0420 C.3    31  GLU31       0.1163
     73  CD       -11.9500  -21.6040   18.9800 C.2    31  GLU31       0.3649
     74  OE1      -11.3930  -21.5270   20.0780 O.co2  31  GLU31      -0.2457
     75  OE2      -12.5810  -22.5720   18.6420 O.co2  31  GLU31      -0.2457
     76  N         -8.9180  -17.3380   19.9390 N.am   32  THR32      -0.1937
     77  CA        -8.3310  -16.0360   20.2870 C.3    32  THR32       0.2028
     78  C         -6.7790  -16.1090   20.3360 C.2    32  THR32       0.2642
     79  O         -6.1890  -17.0060   20.9540 O.2    32  THR32      -0.2714
     80  CB        -8.8770  -15.5310   21.6580 C.3    32  THR32       0.1808
     81  OG1      -10.2480  -15.0970   21.5220 O.3    32  THR32      -0.2208
     82  CG2       -8.0250  -14.3700   22.2260 C.3    32  THR32       0.0379
     83  N         -6.1430  -15.1400   19.6810 N.am   33  TYR33      -0.1959
     84  CA        -4.7000  -15.0190   19.6520 C.3    33  TYR33       0.1771
     85  C         -4.0960  -14.5340   20.9670 C.2    33  TYR33       0.2619
     86  O         -4.3830  -13.4190   21.4210 O.2    33  TYR33      -0.2715
     87  CB        -4.3010  -14.0430   18.5600 C.3    33  TYR33       0.0574
     88  CG        -2.8250  -13.7630   18.4970 C.ar   33  TYR33      -0.0198
     89  CD1       -1.8760  -14.8140   18.4220 C.ar   33  TYR33      -0.0009
     90  CD2       -2.3620  -12.4550   18.4900 C.ar   33  TYR33      -0.0009
     91  CE1       -0.5170  -14.5420   18.3480 C.ar   33  TYR33       0.0417
     92  CE2       -1.0060  -12.1800   18.4250 C.ar   33  TYR33       0.0417
     93  CZ        -0.0880  -13.2250   18.3410 C.ar   33  TYR33       0.1957
     94  OH         1.2470  -12.8890   18.2690 O.3    33  TYR33      -0.2866
     95  N         -3.2540  -15.3730   21.5650 N.am   34  VAL34      -0.1964
     96  CA        -2.3730  -14.9750   22.6500 C.3    34  VAL34       0.1712
     97  C         -0.8950  -15.1870   22.2460 C.2    34  VAL34       0.2458
     98  O         -0.4610  -16.3330   22.0570 O.2    34  VAL34      -0.2730
     99  CB        -2.6300  -15.7560   23.9300 C.3    34  VAL34       0.0289
    100  CG1       -1.6670  -15.2510   25.0620 C.3    34  VAL34       0.0023
    101  CG2       -4.0970  -15.5870   24.3780 C.3    34  VAL34       0.0023
    102  N         -0.1200  -14.0860   22.1270 N.am   35  PRO35      -0.2716
    103  CA         1.2650  -14.1950   21.6840 C.3    35  PRO35       0.1536
    104  C          2.0840  -15.0880   22.6010 C.2    35  PRO35       0.2599
    105  O          1.9890  -14.9810   23.8080 O.2    35  PRO35      -0.2715
    106  CB         1.8010  -12.7420   21.7360 C.3    35  PRO35       0.0310
    107  CG         0.6280  -11.8700   21.9520 C.3    35  PRO35       0.0237
    108  CD        -0.5080  -12.6980   22.4490 C.3    35  PRO35       0.0939
    109  N          2.8950  -15.9550   22.0170 N.am   36  THR36      -0.1951
    110  CA         3.7760  -16.8050   22.7770 C.3    36  THR36       0.1897
    111  C          5.0370  -16.0560   23.1890 C.2    36  THR36       0.2313
    112  O          5.5590  -15.2160   22.4470 O.2    36  THR36      -0.2863
    113  CB         4.1470  -18.0140   21.9180 C.3    36  THR36       0.1794
    114  OG1        2.9340  -18.6840   21.6120 O.3    36  THR36      -0.2208
    115  CG2        5.1340  -18.9850   22.6170 C.3    36  THR36       0.0378
    116  N          8.0800  -21.1050   20.0360 N.3    59  THR59      -0.1203
    117  CA         8.7670  -19.8390   20.1210 C.3    59  THR59       0.1994
    118  C          7.8790  -18.7140   19.5920 C.2    59  THR59       0.2619
    119  O          6.9000  -18.9320   18.8830 O.2    59  THR59      -0.2717
    120  CB        10.0550  -19.8710   19.2950 C.3    59  THR59       0.1784
    121  OG1        9.7040  -20.0070   17.9200 O.3    59  THR59      -0.2211
    122  CG2       10.9980  -21.0560   19.6880 C.3    59  THR59       0.0376
    123  N          8.2160  -17.4950   19.9790 N.am   60  SER60      -0.1937
    124  CA         7.5870  -16.2860   19.4510 C.3    60  SER60       0.2055
    125  C          8.1190  -15.9640   18.0780 C.2    60  SER60       0.2643
    126  O          9.3310  -15.9840   17.8380 O.2    60  SER60      -0.2714
    127  CB         7.9630  -15.0840   20.3090 C.3    60  SER60       0.2130
    128  OG         7.4290  -13.8850   19.7900 O.3    60  SER60      -0.2179
    129  N          7.2230  -15.5690   17.1940 N.am   61  GLY61      -0.1954
    130  CA         7.6410  -15.0480   15.9100 C.3    61  GLY61       0.1869
    131  C          8.2130  -13.6460   15.9230 C.2    61  GLY61       0.2309
    132  O          8.6810  -13.1940   14.8830 O.2    61  GLY61      -0.2863
    133  N          0.4450  -23.5290    7.2220 N.3   116  CYS116     -0.1221
    134  CA        -0.5950  -23.4370    8.2160 C.3   116  CYS116      0.1808
    135  C         -1.8400  -22.7660    7.6180 C.2   116  CYS116      0.2601
    136  O         -1.7300  -21.9920    6.7010 O.2   116  CYS116     -0.2717
    137  CB        -0.0750  -22.6270    9.4310 C.3   116  CYS116      0.0970
    138  SG         1.3580  -23.3330   10.2770 S.3   116  CYS116     -0.0800
    139  N         -3.0060  -23.0630    8.1710 N.am  117  LYS117     -0.1979
    140  CA        -4.2840  -22.4060    7.8150 C.3   117  LYS117      0.1596
    141  C         -4.7320  -22.7030    6.3890 C.2   117  LYS117      0.2287
    142  O         -5.2460  -21.8130    5.6920 O.2   117  LYS117     -0.2864
    143  CB        -4.2490  -20.8680    8.0260 C.3   117  LYS117      0.0298
    144  CG        -3.5450  -20.3740    9.3130 C.3   117  LYS117      0.0038
    145  CD        -3.9030  -18.9420    9.6500 C.3   117  LYS117      0.0206
    146  CE        -2.9800  -18.4310   10.7530 C.3   117  LYS117      0.1093
    147  NZ        -3.1660  -17.0240   11.1470 N.3   117  LYS117     -0.1314
    148  N         -7.3240  -24.0740    5.3260 N.3   119  ASP119     -0.1225
    149  CA        -8.7610  -23.7560    5.1460 C.3   119  ASP119      0.1805
    150  C         -9.0130  -22.3780    4.5290 C.2   119  ASP119      0.2597
    151  O        -10.0370  -22.1390    3.9300 O.2   119  ASP119     -0.2718
    152  CB        -9.5370  -23.8180    6.4830 C.3   119  ASP119      0.1424
    153  CG        -8.8730  -23.0010    7.5810 C.2   119  ASP119      0.3668
    154  OD1       -7.8220  -23.4550    8.0960 O.co2 119  ASP119     -0.2456
    155  OD2       -9.3800  -21.9140    7.9160 O.co2 119  ASP119     -0.2456
    156  N         -8.0640  -21.4780    4.6820 N.am  120  LEU120     -0.1979
    157  CA        -8.1600  -20.1410    4.1250 C.3   120  LEU120      0.1596
    158  C         -7.9280  -20.0990    2.6050 C.2   120  LEU120      0.2287
    159  O         -8.1630  -19.0850    1.9690 O.2   120  LEU120     -0.2864
    160  CB        -7.1950  -19.2230    4.8640 C.3   120  LEU120      0.0297
    161  CG        -7.5650  -19.0160    6.3380 C.3   120  LEU120      0.0022
    162  CD1       -6.6630  -17.9680    6.9960 C.3   120  LEU120      0.0001
    163  CD2       -9.0610  -18.5970    6.4940 C.3   120  LEU120      0.0001
    164  N         -4.4830  -27.7650    8.7190 N.3   159  SER159     -0.1202
    165  CA        -5.4050  -26.7570    9.1760 C.3   159  SER159      0.2020
    166  C         -5.7420  -27.1040   10.6110 C.2   159  SER159      0.2619
    167  O         -6.4960  -28.0320   10.8420 O.2   159  SER159     -0.2717
    168  CB        -6.6690  -26.7720    8.3230 C.3   159  SER159      0.2103
    169  OG        -7.6760  -25.9410    8.8650 O.3   159  SER159     -0.2182
    170  N         -5.1690  -26.3820   11.5710 N.am  160  ALA160     -0.1965
    171  CA        -5.4630  -26.6280   12.9880 C.3   160  ALA160      0.1728
    172  C         -6.9360  -26.3650   13.2880 C.2   160  ALA160      0.2616
    173  O         -7.5600  -27.0490   14.1130 O.2   160  ALA160     -0.2715
    174  CB        -4.5660  -25.7660   13.8870 C.3   160  ALA160      0.0334
    175  N         -7.4880  -25.3830   12.5770 N.am  161  PHE161     -0.1974
    176  CA        -8.8550  -24.9440   12.7530 C.3   161  PHE161      0.1639
    177  C         -9.8840  -25.9570   12.2590 C.2   161  PHE161      0.2290
    178  O        -10.8870  -26.1570   12.9180 O.2   161  PHE161     -0.2864
    179  CB        -9.0370  -23.5800   12.0700 C.3   161  PHE161      0.0560
    180  CG       -10.4310  -22.9840   12.2050 C.ar  161  PHE161     -0.0200
    181  CD1      -11.0530  -22.4090   11.1100 C.ar  161  PHE161     -0.0042
    182  CD2      -11.0900  -22.9660   13.4350 C.ar  161  PHE161     -0.0042
    183  CE1      -12.3370  -21.8290   11.2320 C.ar  161  PHE161     -0.0003
    184  CE2      -12.3690  -22.3950   13.5730 C.ar  161  PHE161     -0.0003
    185  CZ       -12.9930  -21.8310   12.4690 C.ar  161  PHE161     -0.0000
@<TRIPOS>BOND
     1   159   158    2
     2   158   157    1
     3   151   150    2
     4   157   156    1
     5   157   160    1
     6   150   156   am
     7   150   149    1
     8   160   161    1
     9   149   148    1
    10   149   152    1
    11   142   141    2
    12   161   163    1
    13   161   162    1
    14   141   140    1
    15   152   153    1
    16   136   135    2
    17   133   134    1
    18   153   155   ar
    19   153   154   ar
    20   135   139   am
    21   135   134    1
    22   140   143    1
    23   140   139    1
    24   143   144    1
    25   134   137    1
    26   168   169    1
    27   168   165    1
    28   164   165    1
    29   165   166    1
    30   144   145    1
    31   137   138    1
    32   145   146    1
    33   166   167    2
    34   166   170   am
    35   146   147    1
    36    20    19    2
    37    21    18    1
    38    21    22    1
    39   181   183   ar
    40   181   180   ar
    41   183   185   ar
    42    18    19    1
    43    18    17    1
    44   170   171    1
    45    19    23   am
    46   179   180    1
    47   179   176    1
    48   180   182   ar
    49   177   176    1
    50   177   178    2
    51    11    10    2
    52   185   184   ar
    53   175   176    1
    54   175   172   am
    55    17    10   am
    56     4     3    2
    57    10     9    1
    58   171   172    1
    59   171   174    1
    60    23    24    1
    61   172   173    2
    62    24    25    1
    63   182   184   ar
    64     1     2    1
    65    12     9    1
    66    12    13    1
    67     3     2    1
    68     3     8   am
    69     9     8    1
    70    25    26    2
    71    25    27   am
    72    59    58    1
    73    15    14    2
    74     2     5    1
    75    32    33    1
    76    32    31    1
    77    14    16   am
    78    14    13    1
    79    27    28    1
    80   132   131    2
    81     5     6    1
    82     5     7    1
    83    33    34    1
    84    35    34    1
    85    58    56   ar
    86    58    57   ar
    87    56    54   ar
    88    28    31    1
    89    28    29    1
    90   130   131    1
    91   130   129    1
    92    47    44    1
    93    57    55   ar
    94    54    53   ar
    95    29    30    2
    96    29    36   am
    97    45    44    1
    98    45    46    2
    99    55    53   ar
   100   129   125   am
   101    53    52    1
   102    44    43    1
   103    36    37    1
   104    43    38   am
   105    70    69    2
   106   126   125    2
   107   121   120    1
   108    72    71    1
   109    72    73    1
   110   125   124    1
   111    52    49    1
   112    94    93    1
   113    93    91   ar
   114    93    92   ar
   115    91    89   ar
   116    89    88   ar
   117    92    90   ar
   118    90    88   ar
   119    88    87    1
   120    68    71    1
   121    68    69    1
   122    68    67    1
   123    87    84    1
   124    38    37    1
   125    38    39    2
   126    75    73   ar
   127    69    76   am
   128    63    62    2
   129    37    40    1
   130   119   118    2
   131    73    74   ar
   132   120   122    1
   133   120   117    1
   134   124   123    1
   135   124   127    1
   136    66    65    1
   137    66    60    1
   138    67    62   am
   139    62    61    1
   140    49    50    1
   141    49    48    1
   142   118   123   am
   143   118   117    1
   144    84    83    1
   145    84    85    1
   146    83    78   am
   147    40    41    1
   148    40    42    1
   149   128   127    1
   150    76    77    1
   151    65    64    1
   152    60    50   am
   153    60    61    1
   154   116   117    1
   155    50    51    2
   156    77    78    1
   157    77    80    1
   158    78    79    2
   159    61    64    1
   160    85    86    2
   161    85    95   am
   162    81    80    1
   163    95    96    1
   164   114   113    1
   165    80    82    1
   166   103   106    1
   167   103   102    1
   168   103   104    1
   169   106   107    1
   170   113   115    1
   171   113   110    1
   172   107   108    1
   173   109   104   am
   174   109   110    1
   175    98    97    2
   176   102    97   am
   177   102   108    1
   178    97    96    1
   179   112   111    2
   180   104   105    2
   181    96    99    1
   182   110   111    1
   183    99   101    1
   184    99   100    1
