@<TRIPOS>MOLECULE
tmp/2cm2A00.pdb
 84 76 0 0 0
SMALL
GASTEIGER

@<TRIPOS>ATOM
      1  N         -3.1010  -22.1530   31.1120 N.3   106  ARG106     -0.1245
      2  CA        -3.0070  -23.6020   31.1040 C.3   106  ARG106      0.1563
      3  C         -1.5520  -24.0450   31.2040 C.2   106  ARG106      0.2260
      4  O         -1.2770  -25.0920   31.7630 O.2   106  ARG106     -0.2867
      5  CB        -3.6500  -24.1370   29.8190 C.3   106  ARG106      0.0307
      6  CG        -3.4040  -25.6340   29.5360 C.3   106  ARG106      0.0489
      7  CD        -4.0360  -26.5570   30.6030 C.3   106  ARG106      0.2205
      8  NE        -4.0130  -27.9370   30.1070 N.pl3 106  ARG106     -0.0865
      9  CZ        -3.7330  -29.0200   30.8350 C.cat 106  ARG106      0.5346
     10  NH1       -3.4370  -28.9340   32.1410 N.pl3 106  ARG106      0.1354
     11  NH2       -3.7280  -30.2000   30.2330 N.pl3 106  ARG106      0.1354
     12  N          3.2550  -34.9590   38.0440 N.3   147  SER147     -0.1217
     13  CA         4.1130  -35.8070   37.2340 C.3   147  SER147      0.1889
     14  C          5.2780  -35.0060   36.6860 C.2   147  SER147      0.2288
     15  O          5.1990  -33.7910   36.5320 O.2   147  SER147     -0.2866
     16  CB         3.3370  -36.4000   36.0560 C.3   147  SER147      0.2089
     17  OG         2.9490  -35.4050   35.1150 O.3   147  SER147     -0.2183
     18  N          8.2640  -35.5290   33.5190 N.3   149  ASP149     -0.1239
     19  CA         8.7340  -36.3130   32.3790 C.3   149  ASP149      0.1674
     20  C          9.9660  -35.6070   31.8340 C.2   149  ASP149      0.2266
     21  O          9.8670  -34.6070   31.1250 O.2   149  ASP149     -0.2867
     22  CB         7.6070  -36.3770   31.3380 C.3   149  ASP149      0.1410
     23  CG         7.8810  -37.3520   30.2260 C.2   149  ASP149      0.3668
     24  OD1        8.9420  -38.0110   30.2340 O.co2 149  ASP149     -0.2456
     25  OD2        7.0060  -37.4580   29.3360 O.co2 149  ASP149     -0.2456
     26  N          8.7080  -31.8400   30.9560 N.3   156  VAL156     -0.1245
     27  CA         7.3180  -31.4000   31.0740 C.3   156  VAL156      0.1561
     28  C          6.7880  -31.9210   32.4030 C.2   156  VAL156      0.2260
     29  O          6.9290  -33.1080   32.7450 O.2   156  VAL156     -0.2867
     30  CB         6.4260  -31.8960   29.8840 C.3   156  VAL156      0.0252
     31  CG1        6.4570  -33.4200   29.7410 C.3   156  VAL156      0.0019
     32  CG2        4.9970  -31.4550   30.1070 C.3   156  VAL156      0.0019
     33  N          3.3880  -31.8170   35.2500 N.3   158  GLN158     -0.1245
     34  CA         2.0000  -31.4330   35.4440 C.3   158  GLN158      0.1566
     35  C          1.9560  -31.0080   36.9110 C.2   158  GLN158      0.2260
     36  O          2.4800  -31.7090   37.7850 O.2   158  GLN158     -0.2867
     37  CB         1.0490  -32.6000   35.2320 C.3   158  GLN158      0.0367
     38  CG         1.0210  -33.0880   33.8120 C.3   158  GLN158      0.0905
     39  CD        -0.0510  -34.1080   33.6130 C.2   158  GLN158      0.2608
     40  OE1       -1.1640  -33.7680   33.2550 O.2   158  GLN158     -0.2717
     41  NE2        0.2680  -35.3540   33.8750 N.am  158  GLN158     -0.0878
     42  N          0.4070  -27.0720   33.0010 N.3   173  LEU173     -0.1245
     43  CA         1.5060  -27.7690   32.3510 C.3   173  LEU173      0.1561
     44  C          2.7370  -26.8710   32.4720 C.2   173  LEU173      0.2260
     45  O          2.6530  -25.6800   32.2190 O.2   173  LEU173     -0.2867
     46  CB         1.1770  -28.0100   30.8760 C.3   173  LEU173      0.0270
     47  CG        -0.0960  -28.8250   30.6080 C.3   173  LEU173      0.0019
     48  CD1       -0.2680  -29.0510   29.1000 C.3   173  LEU173      0.0001
     49  CD2       -0.0150  -30.1790   31.3460 C.3   173  LEU173      0.0001
     50  N          6.4110  -26.4090   30.9830 N.3   175  PHE175     -0.1241
     51  CA         7.3270  -26.8210   29.9180 C.3   175  PHE175      0.1605
     52  C          8.6210  -26.0950   30.1770 C.2   175  PHE175      0.2264
     53  O          8.7350  -24.8910   29.9880 O.2   175  PHE175     -0.2867
     54  CB         6.7350  -26.4470   28.5540 C.3   175  PHE175      0.0534
     55  CG         5.7230  -27.4380   28.0500 C.ar  175  PHE175     -0.0203
     56  CD1        6.1360  -28.5540   27.3330 C.ar  175  PHE175     -0.0042
     57  CD2        4.3690  -27.2920   28.3320 C.ar  175  PHE175     -0.0042
     58  CE1        5.2200  -29.5090   26.9110 C.ar  175  PHE175     -0.0003
     59  CE2        3.4510  -28.2510   27.9080 C.ar  175  PHE175     -0.0003
     60  CZ         3.8890  -29.3610   27.1960 C.ar  175  PHE175     -0.0000
     61  N          6.1520  -28.7940   20.8590 N.3   198  LYS198     -0.1245
     62  CA         5.5660  -29.5470   21.9620 C.3   198  LYS198      0.1561
     63  C          4.6250  -28.6000   22.7210 C.2   198  LYS198      0.2260
     64  O          3.5260  -28.9910   23.1190 O.2   198  LYS198     -0.2867
     65  CB         6.6440  -30.0530   22.9270 C.3   198  LYS198      0.0271
     66  CG         7.6240  -31.0530   22.3320 C.3   198  LYS198      0.0035
     67  CD         6.9230  -32.3250   21.8960 C.3   198  LYS198      0.0206
     68  CE         7.9310  -33.3540   21.3990 C.3   198  LYS198      0.1093
     69  NZ         7.2750  -34.6520   21.0800 N.3   198  LYS198     -0.1314
     70  N          1.4220  -28.1630   20.7770 N.3   201  GLU201     -0.1231
     71  CA         0.5690  -29.3620   20.8190 C.3   201  GLU201      0.1699
     72  C         -0.0660  -29.6090   22.1690 C.2   201  GLU201      0.2592
     73  O         -0.9890  -30.4250   22.2800 O.2   201  GLU201     -0.2718
     74  CB         1.3500  -30.6320   20.4760 C.3   201  GLU201      0.0402
     75  CG         1.9590  -30.6700   19.1230 C.3   201  GLU201      0.1161
     76  CD         2.8380  -31.8890   18.9700 C.2   201  GLU201      0.3649
     77  OE1        3.1360  -32.5460   20.0000 O.co2 201  GLU201     -0.2457
     78  OE2        3.2440  -32.1660   17.8410 O.co2 201  GLU201     -0.2457
     79  N          0.4380  -28.9310   23.1900 N.am  202  SER202     -0.1952
     80  CA        -0.0440  -29.1050   24.5580 C.3   202  SER202      0.1924
     81  C         -1.3330  -28.3830   24.8840 C.2   202  SER202      0.2314
     82  O         -1.9700  -28.6830   25.9060 O.2   202  SER202     -0.2863
     83  CB         1.0210  -28.6100   25.5390 C.3   202  SER202      0.2116
     84  OG         1.0180  -27.1820   25.5960 O.3   202  SER202     -0.2180
@<TRIPOS>BOND
     1    78    76   ar
     2    76    75    1
     3    76    77   ar
     4    75    74    1
     5    74    71    1
     6    70    71    1
     7    71    72    1
     8    61    62    1
     9    69    68    1
    10    68    67    1
    11    67    66    1
    12    62    63    1
    13    62    65    1
    14    72    73    2
    15    72    79   am
    16    66    65    1
    17    63    64    2
    18    79    80    1
    19    80    81    1
    20    80    83    1
    21    81    82    2
    22    83    84    1
    23    58    60   ar
    24    58    56   ar
    25    60    59   ar
    26    56    55   ar
    27    59    57   ar
    28    55    57   ar
    29    55    54    1
    30    54    51    1
    31    48    47    1
    32    25    23   ar
    33     6     5    1
    34     6     7    1
    35    31    30    1
    36     5     2    1
    37    30    32    1
    38    30    27    1
    39    51    52    1
    40    51    50    1
    41    53    52    2
    42     8     7    1
    43     8     9    2
    44    23    24   ar
    45    23    22    1
    46    11     9    1
    47    47    46    1
    48    47    49    1
    49     9    10    1
    50    46    43    1
    51    26    27    1
    52    27    28    1
    53     2     1    1
    54     2     3    1
    55    21    20    2
    56     3     4    2
    57    22    19    1
    58    20    19    1
    59    45    44    2
    60    43    44    1
    61    43    42    1
    62    19    18    1
    63    28    29    2
    64    40    39    2
    65    39    38    1
    66    39    41   am
    67    38    37    1
    68    17    16    1
    69    37    34    1
    70    33    34    1
    71    34    35    1
    72    16    13    1
    73    15    14    2
    74    14    13    1
    75    35    36    2
    76    13    12    1
