@<TRIPOS>MOLECULE
tmp/2cm2A01.pdb
 75 73 0 0 0
SMALL
GASTEIGER

@<TRIPOS>ATOM
      1  N         12.2020  -14.4490   45.3280 N.3    90  PRO90      -0.2116
      2  CA        11.8270  -15.1570   46.5660 C.3    90  PRO90       0.1372
      3  C         10.4840  -14.6760   47.1480 C.2    90  PRO90       0.2244
      4  O          9.7470  -15.4610   47.7570 O.2    90  PRO90      -0.2868
      5  CB        12.9860  -14.8410   47.5150 C.3    90  PRO90       0.0268
      6  CG        14.1250  -14.6020   46.6020 C.3    90  PRO90       0.0207
      7  CD        13.5400  -13.8460   45.4410 C.3    90  PRO90       0.0892
      8  N          6.7560  -15.4060   44.2780 N.3    93  CYS93      -0.1221
      9  CA         6.3070  -16.7050   43.7720 C.3    93  CYS93       0.1808
     10  C          4.8150  -16.8140   43.9650 C.2    93  CYS93       0.2601
     11  O          4.1210  -17.3860   43.1310 O.2    93  CYS93      -0.2717
     12  CB         7.0040  -17.8570   44.5020 C.3    93  CYS93       0.0970
     13  SG         8.7700  -17.9880   44.1410 S.3    93  CYS93      -0.0800
     14  N          4.3200  -16.2950   45.0900 N.am   94  GLY94      -0.1957
     15  CA         2.8840  -16.3120   45.3350 C.3    94  GLY94       0.1869
     16  C          2.1740  -15.4440   44.2980 C.2    94  GLY94       0.2309
     17  O          1.1000  -15.7980   43.8070 O.2    94  GLY94      -0.2863
     18  N         13.8110  -17.9720   41.4180 N.3   123  ALA123     -0.1231
     19  CA        13.5440  -18.8180   42.5730 C.3   123  ALA123      0.1694
     20  C         13.0170  -20.1900   42.1450 C.2   123  ALA123      0.2591
     21  O         12.5370  -20.3600   41.0330 O.2   123  ALA123     -0.2718
     22  CB        12.5280  -18.1420   43.4960 C.3   123  ALA123      0.0304
     23  N         13.1170  -21.1690   43.0460 N.am  124  GLN124     -0.1979
     24  CA        12.6040  -22.5190   42.7860 C.3   124  GLN124      0.1601
     25  C         11.1150  -22.3750   43.1370 C.2   124  GLN124      0.2287
     26  O         10.6950  -22.6340   44.2730 O.2   124  GLN124     -0.2864
     27  CB        13.3010  -23.5020   43.7330 C.3   124  GLN124      0.0394
     28  CG        12.8230  -24.9320   43.5870 C.3   124  GLN124      0.0908
     29  CD        12.9900  -25.4430   42.1760 C.2   124  GLN124      0.2608
     30  OE1       14.0910  -25.4520   41.6360 O.2   124  GLN124     -0.2717
     31  NE2       11.8840  -25.8730   41.5660 N.am  124  GLN124     -0.0878
     32  N          3.9650  -27.1080   47.8450 N.3   134  MET134     -0.1230
     33  CA         4.4580  -25.7660   48.1400 C.3   134  MET134      0.1702
     34  C          3.2370  -24.9290   48.4580 C.2   134  MET134      0.2592
     35  O          2.2510  -24.9550   47.7200 O.2   134  MET134     -0.2718
     36  CB         5.1570  -25.1280   46.9370 C.3   134  MET134      0.0401
     37  CG         6.6250  -25.3780   46.8340 C.3   134  MET134      0.0596
     38  SD         7.2450  -24.3350   45.4920 S.3   134  MET134     -0.1393
     39  CE         7.7020  -22.9650   46.2910 C.3   134  MET134      0.0692
     40  N          3.2950  -24.2000   49.5620 N.am  135  ILE135     -0.1966
     41  CA         2.1780  -23.3550   49.9430 C.3   135  ILE135      0.1727
     42  C          2.6080  -21.8950   49.8560 C.2   135  ILE135      0.2616
     43  O          3.6740  -21.5130   50.3510 O.2   135  ILE135     -0.2715
     44  CB         1.6770  -23.6840   51.3710 C.3   135  ILE135      0.0290
     45  CG1        1.0980  -25.1050   51.3880 C.3   135  ILE135      0.0022
     46  CG2        0.6340  -22.6720   51.7950 C.3   135  ILE135      0.0023
     47  CD1        0.6330  -25.5900   52.7540 C.3   135  ILE135      0.0001
     48  N          1.8120  -21.0960   49.1570 N.am  136  PHE136     -0.1960
     49  CA         2.0970  -19.6800   49.0160 C.3   136  PHE136      0.1771
     50  C          1.0710  -19.0170   49.9060 C.2   136  PHE136      0.2619
     51  O         -0.0460  -18.7340   49.4930 O.2   136  PHE136     -0.2715
     52  CB         1.9610  -19.2470   47.5500 C.3   136  PHE136      0.0574
     53  CG         2.8630  -20.0040   46.6380 C.ar  136  PHE136     -0.0200
     54  CD1        4.2280  -19.7540   46.6250 C.ar  136  PHE136     -0.0042
     55  CD2        2.3630  -21.0450   45.8630 C.ar  136  PHE136     -0.0042
     56  CE1        5.0840  -20.5420   45.8540 C.ar  136  PHE136     -0.0003
     57  CE2        3.2190  -21.8410   45.0880 C.ar  136  PHE136     -0.0003
     58  CZ         4.5730  -21.5930   45.0890 C.ar  136  PHE136     -0.0000
     59  N          1.4750  -18.7850   51.1550 N.am  137  GLU137     -0.1963
     60  CA         0.5710  -18.2280   52.1530 C.3   137  GLU137      0.1733
     61  C          0.0420  -16.8460   51.8550 C.2   137  GLU137      0.2616
     62  O         -1.0560  -16.5010   52.2810 O.2   137  GLU137     -0.2715
     63  CB         1.2520  -18.1850   53.5240 C.3   137  GLU137      0.0429
     64  CG         1.7440  -19.4930   54.0550 C.3   137  GLU137      0.1163
     65  CD         2.1570  -19.3670   55.5130 C.2   137  GLU137      0.3649
     66  OE1        2.7450  -18.3260   55.8720 O.co2 137  GLU137     -0.2457
     67  OE2        1.8960  -20.2980   56.2860 O.co2 137  GLU137     -0.2457
     68  N          0.8160  -16.0410   51.1480 N.am  138  ASP138     -0.1971
     69  CA         0.3770  -14.6920   50.8570 C.3   138  ASP138      0.1709
     70  C         -0.7210  -14.5810   49.8070 C.2   138  ASP138      0.2293
     71  O         -1.4990  -13.6320   49.8300 O.2   138  ASP138     -0.2864
     72  CB         1.5800  -13.8100   50.4730 C.3   138  ASP138      0.1436
     73  CG         2.3340  -14.3080   49.2430 C.2   138  ASP138      0.3671
     74  OD1        2.3540  -15.5210   48.9460 O.co2 138  ASP138     -0.2456
     75  OD2        2.9490  -13.4500   48.5940 O.co2 138  ASP138     -0.2456
@<TRIPOS>BOND
     1    21    20    2
     2    18    19    1
     3    31    29   am
     4    30    29    2
     5    20    19    1
     6    20    23   am
     7    29    28    1
     8    19    22    1
     9    24    23    1
    10    24    25    1
    11    24    27    1
    12    11    10    2
    13    25    26    2
    14    28    27    1
    15     9    10    1
    16     9     8    1
    17     9    12    1
    18    17    16    2
    19    10    14   am
    20    13    12    1
    21    16    15    1
    22    57    58   ar
    23    57    55   ar
    24    58    56   ar
    25    14    15    1
    26     1     7    1
    27     1     2    1
    28     7     6    1
    29    38    39    1
    30    38    37    1
    31    56    54   ar
    32    55    53   ar
    33     2     3    1
    34     2     5    1
    35     6     5    1
    36    54    53   ar
    37    53    52    1
    38    37    36    1
    39    36    33    1
    40     3     4    2
    41    52    49    1
    42    35    34    2
    43    32    33    1
    44    33    34    1
    45    34    40   am
    46    75    73   ar
    47    74    73   ar
    48    49    48    1
    49    49    50    1
    50    48    42   am
    51    73    72    1
    52    51    50    2
    53    40    41    1
    54    70    71    2
    55    70    69    1
    56    42    41    1
    57    42    43    2
    58    50    59   am
    59    41    44    1
    60    72    69    1
    61    69    68    1
    62    68    61   am
    63    59    60    1
    64    44    45    1
    65    44    46    1
    66    45    47    1
    67    61    60    1
    68    61    62    2
    69    60    63    1
    70    63    64    1
    71    64    65    1
    72    65    66   ar
    73    65    67   ar
