@<TRIPOS>MOLECULE
tmp/2cm4A00.pdb
 213 201 0 0 0
SMALL
GASTEIGER

@<TRIPOS>ATOM
      1  N         23.3040   33.7040   29.4240 N.3    13  PHE13      -0.1241
      2  CA        22.4200   33.2660   28.3420 C.3    13  PHE13       0.1605
      3  C         20.9390   33.2340   28.7730 C.2    13  PHE13       0.2264
      4  O         20.1350   32.5490   28.1570 O.2    13  PHE13      -0.2867
      5  CB        22.8260   31.8470   27.8630 C.3    13  PHE13       0.0534
      6  CG        24.2530   31.7480   27.3850 C.ar   13  PHE13      -0.0203
      7  CD1       24.9910   32.8950   27.0970 C.ar   13  PHE13      -0.0042
      8  CD2       24.8660   30.4960   27.2330 C.ar   13  PHE13      -0.0042
      9  CE1       26.3450   32.7960   26.6420 C.ar   13  PHE13      -0.0003
     10  CE2       26.2000   30.3890   26.7570 C.ar   13  PHE13      -0.0003
     11  CZ        26.9320   31.5370   26.4760 C.ar   13  PHE13      -0.0000
     12  N         19.2710   29.7750   29.2370 N.3    16  GLY16      -0.1225
     13  CA        18.8660   29.0330   28.0420 C.3    16  GLY16       0.1811
     14  C         17.4400   29.2920   27.5570 C.2    16  GLY16       0.2280
     15  O         16.8740   28.4660   26.8330 O.2    16  GLY16      -0.2866
     16  N         16.4770   32.3590   25.8740 N.3    18  GLU18      -0.1245
     17  CA        16.4240   33.4470   24.8820 C.3    18  GLU18       0.1567
     18  C         17.4080   33.2900   23.7510 C.2    18  GLU18       0.2260
     19  O         18.4580   32.6930   23.9180 O.2    18  GLU18      -0.2867
     20  CB        16.7360   34.7970   25.5800 C.3    18  GLU18       0.0388
     21  CG        15.8950   35.0460   26.8390 C.3    18  GLU18       0.1160
     22  CD        14.4550   35.4580   26.5020 C.2    18  GLU18       0.3649
     23  OE1       14.1860   35.7940   25.3260 O.co2  18  GLU18      -0.2457
     24  OE2       13.6020   35.4440   27.4080 O.co2  18  GLU18      -0.2457
     25  N         20.1750   35.1350   21.1880 N.3    20  TYR20      -0.1241
     26  CA        21.1320   36.2560   21.2220 C.3    20  TYR20       0.1605
     27  C         21.6980   36.4340   19.8440 C.2    20  TYR20       0.2264
     28  O         22.0020   35.4400   19.1620 O.2    20  TYR20      -0.2867
     29  CB        22.3000   35.9630   22.2090 C.3    20  TYR20       0.0534
     30  CG        21.9130   36.1260   23.6430 C.ar   20  TYR20      -0.0201
     31  CD1       22.2610   37.2810   24.3500 C.ar   20  TYR20      -0.0009
     32  CD2       21.1780   35.1310   24.3050 C.ar   20  TYR20      -0.0009
     33  CE1       21.8620   37.4590   25.7010 C.ar   20  TYR20       0.0417
     34  CE2       20.7930   35.2880   25.6440 C.ar   20  TYR20       0.0417
     35  CZ        21.1460   36.4650   26.3360 C.ar   20  TYR20       0.1957
     36  OH        20.7420   36.6410   27.6340 O.3    20  TYR20      -0.2866
     37  N         30.1430   35.4170   10.7020 N.3    31  ARG31      -0.1245
     38  CA        28.9760   35.1830    9.8340 C.3    31  ARG31       0.1563
     39  C         27.9470   36.3040    9.9210 C.2    31  ARG31       0.2260
     40  O         27.5680   36.7140   11.0100 O.2    31  ARG31      -0.2867
     41  CB        28.2840   33.8850   10.1960 C.3    31  ARG31       0.0307
     42  CG        28.5960   32.7340    9.2740 C.3    31  ARG31       0.0489
     43  CD        29.5770   31.7860    9.9030 C.3    31  ARG31       0.2205
     44  NE        30.1520   30.8670    8.9250 N.pl3  31  ARG31      -0.0865
     45  CZ        30.6600   31.2390    7.7540 C.cat  31  ARG31       0.5346
     46  NH1       31.1750   30.3330    6.9350 N.pl3  31  ARG31       0.1354
     47  NH2       30.6550   32.5180    7.4010 N.pl3  31  ARG31       0.1354
     48  N         24.5350   36.3510   12.3930 N.3    34  LEU34      -0.1245
     49  CA        24.6950   35.2490   13.3250 C.3    34  LEU34       0.1561
     50  C         23.8430   35.4010   14.5600 C.2    34  LEU34       0.2260
     51  O         23.8680   36.4510   15.2460 O.2    34  LEU34      -0.2867
     52  CB        26.1740   35.0420   13.7100 C.3    34  LEU34       0.0270
     53  CG        26.4440   33.7070   14.4410 C.3    34  LEU34       0.0019
     54  CD1       25.9360   32.4970   13.6070 C.3    34  LEU34       0.0001
     55  CD2       27.9490   33.5170   14.8280 C.3    34  LEU34       0.0001
     56  N         22.1700   32.8990   17.9230 N.3    36  GLY36      -0.1210
     57  CA        22.1190   31.6380   18.6430 C.3    36  GLY36       0.1956
     58  C         20.7540   31.4880   19.3380 C.2    36  GLY36       0.2612
     59  O         20.2750   32.4140   19.9830 O.2    36  GLY36      -0.2717
     60  N         20.1320   30.3190   19.1760 N.am   37  GLU37      -0.1966
     61  CA        18.8470   30.0420   19.8090 C.3    37  GLU37       0.1718
     62  C         18.8660   28.6690   20.4680 C.2    37  GLU37       0.2458
     63  O         19.2620   27.6720   19.8500 O.2    37  GLU37      -0.2730
     64  CB        17.7150   30.1200   18.7770 C.3    37  GLU37       0.0428
     65  CG        17.5460   28.8600   17.9300 C.3    37  GLU37       0.1163
     66  CD        16.8400   29.1260   16.5960 C.2    37  GLU37       0.3649
     67  OE1       17.2410   30.0780   15.8820 O.co2  37  GLU37      -0.2457
     68  OE2       15.9060   28.3600   16.2510 O.co2  37  GLU37      -0.2457
     69  N         18.4550   28.6120   21.7220 N.am   38  PRO38      -0.2727
     70  CA        18.4230   27.3160   22.4640 C.3    38  PRO38       0.1402
     71  C         17.5040   26.3300   21.7310 C.2    38  PRO38       0.2269
     72  O         16.4920   26.7180   21.1900 O.2    38  PRO38      -0.2865
     73  CB        17.8080   27.6970   23.8020 C.3    38  PRO38       0.0296
     74  CG        17.9940   29.1900   23.9060 C.3    38  PRO38       0.0237
     75  CD        17.9030   29.7120   22.5160 C.3    38  PRO38       0.0939
     76  N         24.1880   22.4260   26.6510 N.3    47  LEU47      -0.1245
     77  CA        22.9970   23.0980   26.1580 C.3    47  LEU47       0.1561
     78  C         22.9800   22.9700   24.6280 C.2    47  LEU47       0.2260
     79  O         23.9940   23.2530   23.9590 O.2    47  LEU47      -0.2867
     80  CB        23.0490   24.5800   26.5550 C.3    47  LEU47       0.0270
     81  CG        21.8060   25.4540   26.2750 C.3    47  LEU47       0.0019
     82  CD1       20.6720   25.1680   27.2660 C.3    47  LEU47       0.0001
     83  CD2       22.2020   26.9520   26.3310 C.3    47  LEU47       0.0001
     84  N         22.0780   24.1150   20.9440 N.3    49  VAL49      -0.1245
     85  CA        21.8650   25.4260   20.3450 C.3    49  VAL49       0.1561
     86  C         21.8630   25.3550   18.8290 C.2    49  VAL49       0.2260
     87  O         22.7220   24.7130   18.2380 O.2    49  VAL49      -0.2867
     88  CB        22.9730   26.4340   20.8300 C.3    49  VAL49       0.0252
     89  CG1       22.7610   27.8340   20.2200 C.3    49  VAL49       0.0019
     90  CG2       23.0150   26.5000   22.3450 C.3    49  VAL49       0.0019
     91  N         22.5310   27.6120   15.5780 N.3    51  MET51      -0.1245
     92  CA        23.1450   28.8640   15.1330 C.3    51  MET51       0.1570
     93  C         22.6570   29.1600   13.7200 C.2    51  MET51       0.2261
     94  O         22.8830   28.3640   12.8010 O.2    51  MET51      -0.2867
     95  CB        24.6780   28.7280   15.1250 C.3    51  MET51       0.0387
     96  CG        25.3050   28.3830   16.4840 C.3    51  MET51       0.0595
     97  SD        24.9680   29.6530   17.7780 S.3    51  MET51      -0.1393
     98  CE        25.4310   31.0360   16.9880 C.3    51  MET51       0.0692
     99  N         22.4930   31.9050   10.3990 N.3    53  PHE53      -0.1241
    100  CA        23.2300   32.9850    9.7540 C.3    53  PHE53       0.1605
    101  C         22.8920   33.0420    8.2730 C.2    53  PHE53       0.2264
    102  O         22.2380   32.1480    7.7470 O.2    53  PHE53      -0.2867
    103  CB        24.7280   32.8340    9.9690 C.3    53  PHE53       0.0534
    104  CG        25.2620   31.4650    9.6280 C.ar   53  PHE53      -0.0203
    105  CD1       25.1250   30.4050   10.5220 C.ar   53  PHE53      -0.0042
    106  CD2       25.9540   31.2520    8.4350 C.ar   53  PHE53      -0.0042
    107  CE1       25.6370   29.1500   10.2240 C.ar   53  PHE53      -0.0003
    108  CE2       26.4670   30.0000    8.1270 C.ar   53  PHE53      -0.0003
    109  CZ        26.3100   28.9430    9.0320 C.ar   53  PHE53      -0.0000
    110  N         22.9860   25.7770   11.7440 N.3    62  THR62      -0.1218
    111  CA        23.8020   24.6550   12.1740 C.3    62  THR62       0.1862
    112  C         23.4840   24.2870   13.6230 C.2    62  THR62       0.2287
    113  O         23.1250   25.1680   14.4480 O.2    62  THR62      -0.2866
    114  CB        25.3330   24.9500   11.9850 C.3    62  THR62       0.1770
    115  OG1       25.6650   26.1770   12.6490 O.3    62  THR62      -0.2211
    116  CG2       25.6930   25.0710   10.4680 C.3    62  THR62       0.0375
    117  N         24.6810   23.0350   17.2170 N.3    64  TRP64      -0.1241
    118  CA        25.8630   22.9610   18.0960 C.3    64  TRP64       0.1605
    119  C         25.5410   22.4860   19.5120 C.2    64  TRP64       0.2264
    120  O         24.4370   22.7010   20.0240 O.2    64  TRP64      -0.2867
    121  CB        26.5430   24.3410   18.1790 C.3    64  TRP64       0.0550
    122  CG        27.1310   24.7900   16.9030 C.ar   64  TRP64       0.0003
    123  CD1       26.4740   25.2850   15.8400 C.ar   64  TRP64       0.0946
    124  CD2       28.5270   24.8400   16.5780 C.ar   64  TRP64       0.0152
    125  NE1       27.3620   25.5880   14.8300 N.ar   64  TRP64      -0.2442
    126  CE2       28.6320   25.3350   15.2710 C.ar   64  TRP64       0.0810
    127  CE3       29.6960   24.4610   17.2580 C.ar   64  TRP64       0.0012
    128  CZ2       29.8670   25.5000   14.6220 C.ar   64  TRP64       0.0191
    129  CZ3       30.9230   24.6360   16.6230 C.ar   64  TRP64       0.0001
    130  CH2       30.9970   25.1530   15.3180 C.ar   64  TRP64       0.0015
    131  N         26.7820   23.1120   23.3030 N.3    66  PHE66      -0.1241
    132  CA        27.5860   23.9950   24.1730 C.3    66  PHE66       0.1605
    133  C         27.8890   23.2550   25.4730 C.2    66  PHE66       0.2264
    134  O         26.9740   22.7660   26.1410 O.2    66  PHE66      -0.2867
    135  CB        26.7720   25.2570   24.5690 C.3    66  PHE66       0.0534
    136  CG        26.6830   26.3140   23.4870 C.ar   66  PHE66      -0.0203
    137  CD1       26.3000   27.6370   23.8170 C.ar   66  PHE66      -0.0042
    138  CD2       26.8920   25.9920   22.1550 C.ar   66  PHE66      -0.0042
    139  CE1       26.1840   28.6000   22.8390 C.ar   66  PHE66      -0.0003
    140  CE2       26.7830   26.9640   21.1600 C.ar   66  PHE66      -0.0003
    141  CZ        26.4380   28.2660   21.4960 C.ar   66  PHE66      -0.0000
    142  N         32.7210   28.5410   27.6770 N.3    73  VAL73      -0.1245
    143  CA        31.7960   27.8920   26.7280 C.3    73  VAL73       0.1561
    144  C         32.5880   27.1660   25.6390 C.2    73  VAL73       0.2260
    145  O         33.2690   27.7930   24.8390 O.2    73  VAL73      -0.2867
    146  CB        30.8410   28.9320   26.0490 C.3    73  VAL73       0.0252
    147  CG1       29.8210   28.1950   25.0630 C.3    73  VAL73       0.0019
    148  CG2       30.1090   29.7430   27.0880 C.3    73  VAL73       0.0019
    149  N         31.9620   25.0580   22.3360 N.3    75  ALA75      -0.1245
    150  CA        30.9240   24.7220   21.3640 C.3    75  ALA75       0.1562
    151  C         31.4370   23.7010   20.3570 C.2    75  ALA75       0.2260
    152  O         32.4990   23.8960   19.7540 O.2    75  ALA75      -0.2867
    153  CB        30.4370   25.9910   20.6330 C.3    75  ALA75       0.0290
    154  N         30.5300   20.9160   16.9650 N.3    77  LEU77      -0.1245
    155  CA        29.7200   20.4710   15.8640 C.3    77  LEU77       0.1561
    156  C         30.5880   19.4940   15.0480 C.2    77  LEU77       0.2260
    157  O         31.5440   19.9070   14.3630 O.2    77  LEU77      -0.2867
    158  CB        29.2920   21.6410   14.9940 C.3    77  LEU77       0.0270
    159  CG        28.5250   21.2540   13.7300 C.3    77  LEU77       0.0019
    160  CD1       27.5130   20.0910   14.0290 C.3    77  LEU77       0.0001
    161  CD2       27.8210   22.4340   13.1430 C.3    77  LEU77       0.0001
    162  N         34.9210   25.2830   18.9970 N.3    82  GLN82      -0.1245
    163  CA        35.1780   26.7220   19.2090 C.3    82  GLN82       0.1566
    164  C         35.1260   26.9890   20.6840 C.2    82  GLN82       0.2260
    165  O         34.1870   26.5580   21.3710 O.2    82  GLN82      -0.2867
    166  CB        34.1550   27.6040   18.4530 C.3    82  GLN82       0.0367
    167  CG        34.2470   27.4970   16.9170 C.3    82  GLN82       0.0905
    168  CD        33.5950   28.6730   16.1900 C.2    82  GLN82       0.2608
    169  OE1       33.1730   29.6560   16.8110 O.2    82  GLN82      -0.2717
    170  NE2       33.5170   28.5770   14.8720 N.am   82  GLN82      -0.0878
    171  N         35.3140   29.6560   23.9300 N.3    84  ARG84      -0.1245
    172  CA        35.0860   31.0380   24.3200 C.3    84  ARG84       0.1563
    173  C         35.0630   31.1570   25.8150 C.2    84  ARG84       0.2260
    174  O         34.7780   30.1780   26.5290 O.2    84  ARG84      -0.2867
    175  CB        33.7040   31.5110   23.7820 C.3    84  ARG84       0.0307
    176  CG        33.6920   31.9280   22.3300 C.3    84  ARG84       0.0489
    177  CD        32.2280   32.2400   21.8620 C.3    84  ARG84       0.2205
    178  NE        32.2050   32.6970   20.4760 N.pl3  84  ARG84      -0.0865
    179  CZ        32.3730   31.8980   19.4390 C.cat  84  ARG84       0.5346
    180  NH1       32.5410   30.6010   19.6340 N.pl3  84  ARG84       0.1354
    181  NH2       32.3500   32.3850   18.2100 N.pl3  84  ARG84       0.1354
    182  N         26.3740   40.5900   26.5480 N.3    96  HIS96      -0.1241
    183  CA        27.6220   40.0960   27.1270 C.3    96  HIS96       0.1621
    184  C         28.7400   40.1620   26.0840 C.2    96  HIS96       0.2264
    185  O         28.4780   40.3580   24.8780 O.2    96  HIS96      -0.2867
    186  CB        27.4610   38.6580   27.7250 C.3    96  HIS96       0.0745
    187  CG        27.0210   37.6200   26.7230 C.ar   96  HIS96       0.0817
    188  ND1       25.6900   37.3320   26.4830 N.ar   96  HIS96      -0.2268
    189  CD2       27.7350   36.7660   25.9520 C.ar   96  HIS96       0.1154
    190  CE1       25.6080   36.3690   25.5800 C.ar   96  HIS96       0.1986
    191  NE2       26.8360   36.0410   25.2070 N.ar   96  HIS96      -0.2212
    192  N         32.3750   38.2900   24.7360 N.3    98  ASP98      -0.1239
    193  CA        33.1450   37.0380   24.7640 C.3    98  ASP98       0.1674
    194  C         34.5300   37.2500   24.2540 C.2    98  ASP98       0.2266
    195  O         34.7310   37.9990   23.3470 O.2    98  ASP98      -0.2867
    196  CB        32.5150   35.9810   23.7940 C.3    98  ASP98       0.1410
    197  CG        31.1820   35.4350   24.2750 C.2    98  ASP98       0.3668
    198  OD1       30.8000   35.6500   25.4800 O.co2  98  ASP98      -0.2456
    199  OD2       30.4870   34.7950   23.4250 O.co2  98  ASP98      -0.2456
    200  N         27.3780   40.1020   22.1630 N.3   110  TRP110     -0.1241
    201  CA        26.1150   39.4670   21.8320 C.3   110  TRP110      0.1605
    202  C         25.0330   40.1690   22.6610 C.2   110  TRP110      0.2264
    203  O         25.3000   40.6230   23.7840 O.2   110  TRP110     -0.2867
    204  CB        26.1540   37.9780   22.2280 C.3   110  TRP110      0.0550
    205  CG        27.1180   37.1500   21.4200 C.ar  110  TRP110      0.0003
    206  CD1       28.4800   37.0780   21.5710 C.ar  110  TRP110      0.0946
    207  CD2       26.7850   36.2490   20.3360 C.ar  110  TRP110      0.0152
    208  NE1       29.0220   36.2240   20.6100 N.ar  110  TRP110     -0.2442
    209  CE2       28.0060   35.7110   19.8430 C.ar  110  TRP110      0.0810
    210  CE3       25.5910   35.9000   19.7030 C.ar  110  TRP110      0.0012
    211  CZ2       28.0490   34.7680   18.7920 C.ar  110  TRP110      0.0191
    212  CZ3       25.6320   34.9430   18.6610 C.ar  110  TRP110      0.0001
    213  CH2       26.8540   34.4000   18.2200 C.ar  110  TRP110      0.0015
@<TRIPOS>BOND
     1    46    45    1
     2    47    45    1
     3   102   101    2
     4    45    44    2
     5   108   106   ar
     6   108   109   ar
     7   101   100    1
     8   106   104   ar
     9    44    43    1
    10   109   107   ar
    11    42    43    1
    12    42    41    1
    13   104   103    1
    14   104   105   ar
    15   100   103    1
    16   100    99    1
    17    38    39    1
    18    38    41    1
    19    38    37    1
    20    39    40    2
    21   107   105   ar
    22   116   114    1
    23   110   111    1
    24   114   111    1
    25   114   115    1
    26   111   112    1
    27    48    49    1
    28    94    93    2
    29   161   159    1
    30    49    52    1
    31    49    50    1
    32    54    53    1
    33   112   113    2
    34    52    53    1
    35    93    92    1
    36   159   160    1
    37   159   158    1
    38   157   156    2
    39    53    55    1
    40    50    51    2
    41   128   126   ar
    42   128   130   ar
    43   125   126   ar
    44   125   123   ar
    45   170   168   am
    46   158   155    1
    47   156   155    1
    48    95    92    1
    49    95    96    1
    50    92    91    1
    51   126   124   ar
    52   130   129   ar
    53   123   122   ar
    54   155   154    1
    55    67    66   ar
    56   168   169    2
    57   168   167    1
    58    68    66   ar
    59    96    97    1
    60   124   122   ar
    61   124   127   ar
    62    66    65    1
    63   129   127   ar
    64   122   121    1
    65   167   166    1
    66    98    97    1
    67   117   118    1
    68    56    57    1
    69    65    64    1
    70   118   121    1
    71   118   119    1
    72   181   179    1
    73   213   212   ar
    74   213   211   ar
    75    87    86    2
    76   166   163    1
    77    57    58    1
    78   212   210   ar
    79    64    61    1
    80   211   209   ar
    81    86    85    1
    82   162   163    1
    83    28    27    2
    84    60    58   am
    85    60    61    1
    86   163   164    1
    87    58    59    2
    88   179   180    1
    89   179   178    2
    90   119   120    2
    91   210   207   ar
    92   152   151    2
    93    61    62    1
    94   209   207   ar
    95   209   208   ar
    96    27    26    1
    97    63    62    2
    98    89    88    1
    99   207   205   ar
   100    85    88    1
   101    85    84    1
   102   151   150    1
   103    62    69   am
   104   178   177    1
   105   208   206   ar
   106   153   150    1
   107   164   165    2
   108    88    90    1
   109   140   141   ar
   110   140   138   ar
   111    25    26    1
   112    72    71    2
   113    26    29    1
   114   150   149    1
   115   205   206   ar
   116   205   204    1
   117   141   139   ar
   118    69    70    1
   119    69    75    1
   120    71    70    1
   121   201   200    1
   122   201   204    1
   123   201   202    1
   124   177   176    1
   125   138   136   ar
   126    29    30    1
   127   176   175    1
   128    70    73    1
   129    75    74    1
   130   202   203    2
   131   139   137   ar
   132   131   132    1
   133   195   194    2
   134   199   197   ar
   135   136   137   ar
   136   136   135    1
   137    30    32   ar
   138    30    31   ar
   139    18    19    2
   140    18    17    1
   141   175   172    1
   142   196   197    1
   143   196   193    1
   144    73    74    1
   145   171   172    1
   146    79    78    2
   147   132   135    1
   148   132   133    1
   149   194   193    1
   150   197   198   ar
   151    32    34   ar
   152   172   173    1
   153    31    33   ar
   154    78    77    1
   155   192   193    1
   156   145   144    2
   157   185   184    2
   158    17    20    1
   159    17    16    1
   160   147   146    1
   161   191   190   ar
   162   191   189   ar
   163    23    22   ar
   164   133   134    2
   165    20    21    1
   166   190   188   ar
   167   144   143    1
   168    34    35   ar
   169    33    35   ar
   170   173   174    2
   171   189   187   ar
   172   146   143    1
   173   146   148    1
   174   184   183    1
   175    77    80    1
   176    77    76    1
   177    81    83    1
   178    81    80    1
   179    81    82    1
   180    35    36    1
   181    11     9   ar
   182    11    10   ar
   183   188   187   ar
   184    22    21    1
   185    22    24   ar
   186   182   183    1
   187     9     7   ar
   188   187   186    1
   189   143   142    1
   190    10     8   ar
   191    15    14    2
   192     7     6   ar
   193   183   186    1
   194     8     6   ar
   195     6     5    1
   196    14    13    1
   197     5     2    1
   198    13    12    1
   199     4     3    2
   200     2     3    1
   201     2     1    1
