@<TRIPOS>MOLECULE
tmp/2cm8A00.pdb
 104 99 0 0 0
SMALL
GASTEIGER

@<TRIPOS>ATOM
      1  N         38.5830    9.2260    1.7010 N.3    45  TYR45      -0.1241
      2  CA        39.6950    8.8050    0.8550 C.3    45  TYR45       0.1605
      3  C         39.9140    7.2820    0.9570 C.2    45  TYR45       0.2264
      4  O         40.0020    6.7130    2.0510 O.2    45  TYR45      -0.2867
      5  CB        40.9960    9.5070    1.2720 C.3    45  TYR45       0.0534
      6  CG        40.9700   11.0150    1.1550 C.ar   45  TYR45      -0.0201
      7  CD1       40.9510   11.6410   -0.0960 C.ar   45  TYR45      -0.0009
      8  CD2       40.9430   11.8150    2.2970 C.ar   45  TYR45      -0.0009
      9  CE1       40.9060   13.0310   -0.2000 C.ar   45  TYR45       0.0417
     10  CE2       40.8940   13.1910    2.2050 C.ar   45  TYR45       0.0417
     11  CZ        40.8780   13.7990    0.9680 C.ar   45  TYR45       0.1957
     12  OH        40.8290   15.1650    0.9040 O.3    45  TYR45      -0.2866
     13  N         42.5640    5.4700    0.3140 N.3    47  ASP47      -0.1225
     14  CA        43.7980    5.0470    0.9470 C.3    47  ASP47       0.1805
     15  C         44.0430    5.5380    2.3790 C.2    47  ASP47       0.2597
     16  O         45.1770    5.4850    2.8550 O.2    47  ASP47      -0.2718
     17  CB        44.9950    5.4520    0.0740 C.3    47  ASP47       0.1424
     18  CG        45.0440    6.9420   -0.2090 C.2    47  ASP47       0.3668
     19  OD1       46.0820    7.4110   -0.7270 O.co2  47  ASP47      -0.2456
     20  OD2       44.0530    7.6500    0.0740 O.co2  47  ASP47      -0.2456
     21  N         43.0100    6.0430    3.0520 N.am   48  VAL48      -0.1980
     22  CA        43.1740    6.5240    4.4240 C.3    48  VAL48       0.1595
     23  C         42.0540    5.9350    5.2580 C.2    48  VAL48       0.2287
     24  O         40.8750    6.3440    5.1660 O.2    48  VAL48      -0.2864
     25  CB        43.1390    8.0710    4.5050 C.3    48  VAL48       0.0276
     26  CG1       43.3180    8.5200    5.9770 C.3    48  VAL48       0.0022
     27  CG2       44.2440    8.6630    3.6080 C.3    48  VAL48       0.0022
     28  N         46.8540   22.2890    2.6500 N.3   180  ASP180     -0.1225
     29  CA        46.8960   20.8380    2.5360 C.3   180  ASP180      0.1805
     30  C         48.2930   20.4540    2.0100 C.2   180  ASP180      0.2597
     31  O         48.8230   21.0850    1.0890 O.2   180  ASP180     -0.2718
     32  CB        45.7930   20.3690    1.5790 C.3   180  ASP180      0.1424
     33  CG        45.5960   18.8940    1.5930 C.2   180  ASP180      0.3668
     34  OD1       44.9160   18.3920    0.6750 O.co2 180  ASP180     -0.2456
     35  OD2       46.1070   18.2460    2.5240 O.co2 180  ASP180     -0.2456
     36  N         48.8930   19.4360    2.6190 N.am  181  PHE181     -0.1976
     37  CA        50.2390   18.9800    2.2720 C.3   181  PHE181      0.1639
     38  C         51.2580   20.1040    2.4880 C.2   181  PHE181      0.2290
     39  O         52.3820   20.0260    1.9950 O.2   181  PHE181     -0.2864
     40  CB        50.3060   18.4910    0.8160 C.3   181  PHE181      0.0560
     41  CG        49.6470   17.1500    0.5910 C.ar  181  PHE181     -0.0200
     42  CD1       50.3550   15.9690    0.7790 C.ar  181  PHE181     -0.0042
     43  CD2       48.3120   17.0740    0.2300 C.ar  181  PHE181     -0.0042
     44  CE1       49.7410   14.7400    0.6130 C.ar  181  PHE181     -0.0003
     45  CE2       47.6930   15.8490    0.0640 C.ar  181  PHE181     -0.0003
     46  CZ        48.4080   14.6810    0.2560 C.ar  181  PHE181     -0.0000
     47  N         41.6900   17.1870    9.7840 N.3   214  CYS214     -0.1221
     48  CA        42.0290   18.0640    8.6620 C.3   214  CYS214      0.1808
     49  C         41.1450   17.4260    7.5790 C.2   214  CYS214      0.2602
     50  O         39.9990   17.1270    7.8700 O.2   214  CYS214     -0.2717
     51  CB        43.5220   18.0400    8.3130 C.3   214  CYS214      0.0970
     52  SG        44.4090   16.5020    8.5510 S.3   214  CYS214     -0.0800
     53  N         41.6230   17.2070    6.3640 N.am  215  SER215     -0.1938
     54  CA        40.7540   16.5660    5.3700 C.3   215  SER215      0.2055
     55  C         40.8510   15.0270    5.5010 C.2   215  SER215      0.2642
     56  O         39.8390   14.3430    5.5750 O.2   215  SER215     -0.2714
     57  CB        41.1310   17.0040    3.9390 C.3   215  SER215      0.2130
     58  OG        40.0980   16.6490    3.0160 O.3   215  SER215     -0.2179
     59  N         42.0750   14.5000    5.5310 N.am  216  ALA216     -0.1977
     60  CA        42.3080   13.0630    5.6870 C.3   216  ALA216      0.1597
     61  C         42.4950   12.6870    7.1690 C.2   216  ALA216      0.2287
     62  O         42.3420   11.5170    7.5450 O.2   216  ALA216     -0.2864
     63  CB        43.5480   12.6460    4.8980 C.3   216  ALA216      0.0319
     64  N         45.3960   12.9950    8.8910 N.3   218  ILE218     -0.1231
     65  CA        46.7040   12.3860    9.1070 C.3   218  ILE218      0.1692
     66  C         47.8810   13.3280    8.9250 C.2   218  ILE218      0.2593
     67  O         48.8550   13.2230    9.6510 O.2   218  ILE218     -0.2718
     68  CB        46.9430   11.1360    8.1690 C.3   218  ILE218      0.0266
     69  CG1       46.7840   11.5270    6.6990 C.3   218  ILE218      0.0019
     70  CG2       45.9440   10.0330    8.4800 C.3   218  ILE218      0.0020
     71  CD1       47.0250   10.3130    5.7450 C.3   218  ILE218      0.0001
     72  N         47.8060   14.2440    7.9560 N.am  219  GLY219     -0.1942
     73  CA        48.9320   15.1460    7.7080 C.3   219  GLY219      0.2014
     74  C         49.1000   16.2610    8.7270 C.2   219  GLY219      0.2638
     75  O         50.0030   16.2350    9.5810 O.2   219  GLY219     -0.2714
     76  N         48.2300   17.2570    8.6200 N.am  220  ARG220     -0.1977
     77  CA        48.2280   18.4110    9.5160 C.3   220  ARG220      0.1597
     78  C         47.8530   17.9590   10.9290 C.2   220  ARG220      0.2287
     79  O         48.4200   18.4150   11.9020 O.2   220  ARG220     -0.2864
     80  CB        47.2520   19.4760    8.9580 C.3   220  ARG220      0.0334
     81  CG        47.7810   20.0480    7.6140 C.3   220  ARG220      0.0492
     82  CD        46.7470   20.8420    6.8160 C.3   220  ARG220      0.2205
     83  NE        45.7900   19.9710    6.1080 N.pl3 220  ARG220     -0.0865
     84  CZ        44.7800   20.4300    5.3680 C.cat 220  ARG220      0.5346
     85  NH1       44.6050   21.7500    5.2550 N.pl3 220  ARG220      0.1354
     86  NH2       43.9580   19.5860    4.7410 N.pl3 220  ARG220      0.1354
     87  N         52.4160   13.8360    6.4850 N.3   261  GLN261     -0.1245
     88  CA        52.3820   13.4900    5.0710 C.3   261  GLN261      0.1566
     89  C         53.5050   13.9060    4.1400 C.2   261  GLN261      0.2260
     90  O         53.5400   13.4540    3.0130 O.2   261  GLN261     -0.2867
     91  CB        51.0500   13.9600    4.5050 C.3   261  GLN261      0.0367
     92  CG        49.9450   13.0090    4.8450 C.3   261  GLN261      0.0905
     93  CD        50.0830   11.7210    4.0690 C.2   261  GLN261      0.2608
     94  OE1       49.7890   11.6900    2.8760 O.2   261  GLN261     -0.2717
     95  NE2       50.5580   10.6510    4.7300 N.am  261  GLN261     -0.0878
     96  N         56.6760   18.5740    6.4900 N.3   265  GLN265     -0.1245
     97  CA        55.8310   18.6300    7.6810 C.3   265  GLN265      0.1566
     98  C         56.6310   18.0690    8.8610 C.2   265  GLN265      0.2260
     99  O         56.5060   18.5520    9.9910 O.2   265  GLN265     -0.2867
    100  CB        54.5260   17.8450    7.4930 C.3   265  GLN265      0.0367
    101  CG        53.5040   18.5770    6.6450 C.3   265  GLN265      0.0905
    102  CD        52.2120   17.8050    6.4960 C.2   265  GLN265      0.2608
    103  OE1       52.1570   16.6010    6.7700 O.2   265  GLN265     -0.2717
    104  NE2       51.1570   18.4930    6.0570 N.am  265  GLN265     -0.0878
@<TRIPOS>BOND
     1    19    18   ar
     2    18    20   ar
     3    18    17    1
     4     9     7   ar
     5     9    11   ar
     6     7     6   ar
     7    45    43   ar
     8    45    46   ar
     9    17    14    1
    10    43    41   ar
    11    46    44   ar
    12    13    14    1
    13    41    42   ar
    14    41    40    1
    15    44    42   ar
    16    34    33   ar
    17    40    37    1
    18     2     3    1
    19     2     5    1
    20     2     1    1
    21    12    11    1
    22    14    15    1
    23     3     4    2
    24    11    10   ar
    25    31    30    2
    26     6     5    1
    27     6     8   ar
    28    32    33    1
    29    32    29    1
    30    33    35   ar
    31    39    38    2
    32    30    29    1
    33    30    36   am
    34    10     8   ar
    35    37    38    1
    36    37    36    1
    37    15    16    2
    38    15    21   am
    39    29    28    1
    40    94    93    2
    41    90    89    2
    42    58    57    1
    43    21    22    1
    44    27    25    1
    45    57    54    1
    46    93    95   am
    47    93    92    1
    48    89    88    1
    49    22    25    1
    50    22    23    1
    51    91    92    1
    52    91    88    1
    53    25    26    1
    54    86    84    1
    55    63    60    1
    56    88    87    1
    57    24    23    2
    58    85    84    1
    59    84    83    2
    60    54    55    1
    61    54    53    1
    62    55    59   am
    63    55    56    2
    64    59    60    1
    65    60    61    1
    66    71    69    1
    67   104   102   am
    68    83    82    1
    69    53    49   am
    70    96    97    1
    71   102   101    1
    72   102   103    2
    73   101   100    1
    74    69    68    1
    75    82    81    1
    76    61    62    2
    77   100    97    1
    78    49    50    2
    79    49    48    1
    80    81    80    1
    81    97    98    1
    82    73    72    1
    83    73    74    1
    84    72    66   am
    85    68    70    1
    86    68    65    1
    87    51    52    1
    88    51    48    1
    89    76    74   am
    90    76    77    1
    91    48    47    1
    92    74    75    2
    93    98    99    2
    94    64    65    1
    95    66    65    1
    96    66    67    2
    97    80    77    1
    98    77    78    1
    99    78    79    2
