@<TRIPOS>MOLECULE
tmp/2cmaA00.pdb
 135 130 0 0 0
SMALL
GASTEIGER

@<TRIPOS>ATOM
      1  N          9.7810   -1.8320  -10.2940 N.3    43  ARG43      -0.1231
      2  CA        10.9820   -1.0110  -10.1930 C.3    43  ARG43       0.1694
      3  C         12.2230   -1.8890  -10.2890 C.2    43  ARG43       0.2592
      4  O         13.1820   -1.5440  -10.9850 O.2    43  ARG43      -0.2718
      5  CB        10.9770   -0.2240   -8.8750 C.3    43  ARG43       0.0321
      6  CG        12.2290    0.5930   -8.6040 C.3    43  ARG43       0.0489
      7  CD        12.0030    1.5510   -7.4390 C.3    43  ARG43       0.2205
      8  NE        11.1100    2.6570   -7.7690 N.pl3  43  ARG43      -0.0865
      9  CZ        11.4880    3.7760   -8.3830 C.cat  43  ARG43       0.5346
     10  NH1       12.7540    3.9540   -8.7370 N.pl3  43  ARG43       0.1354
     11  NH2       10.6030    4.7230   -8.6400 N.pl3  43  ARG43       0.1354
     12  N         12.1980   -3.0260   -9.5960 N.am   44  TYR44      -0.1962
     13  CA        13.3190   -3.9620   -9.6060 C.3    44  TYR44       0.1771
     14  C         12.8840   -5.3120  -10.1460 C.2    44  TYR44       0.2619
     15  O         11.7730   -5.7740   -9.8780 O.2    44  TYR44      -0.2715
     16  CB        13.8940   -4.1310   -8.1970 C.3    44  TYR44       0.0574
     17  CG        14.3890   -2.8340   -7.6200 C.ar   44  TYR44      -0.0198
     18  CD1       13.7210   -2.2180   -6.5740 C.ar   44  TYR44      -0.0009
     19  CD2       15.4970   -2.1890   -8.1660 C.ar   44  TYR44      -0.0009
     20  CE1       14.1310   -1.0020   -6.0910 C.ar   44  TYR44       0.0417
     21  CE2       15.9190   -0.9720   -7.6900 C.ar   44  TYR44       0.0417
     22  CZ        15.2340   -0.3780   -6.6520 C.ar   44  TYR44       0.1957
     23  OH        15.6500    0.8500   -6.1650 O.3    44  TYR44      -0.2866
     24  N         13.7660   -5.9570  -10.8950 N.am   45  ARG45      -0.1963
     25  CA        13.4440   -7.2480  -11.4820 C.3    45  ARG45       0.1729
     26  C         13.6040   -8.4030  -10.5080 C.2    45  ARG45       0.2616
     27  O         13.0660   -9.4820  -10.7220 O.2    45  ARG45      -0.2715
     28  CB        14.2910   -7.4460  -12.7380 C.3    45  ARG45       0.0348
     29  CG        13.9940   -6.3460  -13.7470 C.3    45  ARG45       0.0492
     30  CD        15.2240   -5.8150  -14.4450 C.3    45  ARG45       0.2205
     31  NE        15.4440   -6.4600  -15.7340 N.pl3  45  ARG45      -0.0865
     32  CZ        16.2880   -6.0070  -16.6540 C.cat  45  ARG45       0.5346
     33  NH1       16.9940   -4.9050  -16.4320 N.pl3  45  ARG45       0.1354
     34  NH2       16.4240   -6.6610  -17.8000 N.pl3  45  ARG45       0.1354
     35  N         14.3210   -8.1660   -9.4190 N.am   46  ASP46      -0.1957
     36  CA        14.5310   -9.1840   -8.4060 C.3    46  ASP46       0.1840
     37  C         13.7000   -8.9500   -7.1410 C.2    46  ASP46       0.2621
     38  O         14.0030   -9.4980   -6.0850 O.2    46  ASP46      -0.2715
     39  CB        16.0050   -9.2390   -8.0470 C.3    46  ASP46       0.1450
     40  CG        16.5400   -7.8970   -7.6160 C.2    46  ASP46       0.3671
     41  OD1       15.9170   -6.8710   -7.9630 O.co2  46  ASP46      -0.2456
     42  OD2       17.5910   -7.8680   -6.9420 O.co2  46  ASP46      -0.2456
     43  N         12.6600   -8.1310   -7.2470 N.am   47  VAL47      -0.1977
     44  CA        11.7760   -7.8560   -6.1190 C.3    47  VAL47       0.1596
     45  C         10.3420   -7.8480   -6.6210 C.2    47  VAL47       0.2287
     46  O          9.8820   -6.8740   -7.2110 O.2    47  VAL47      -0.2864
     47  CB        12.0550   -6.4970   -5.4850 C.3    47  VAL47       0.0276
     48  CG1       11.0720   -6.2570   -4.3580 C.3    47  VAL47       0.0022
     49  CG2       13.4890   -6.4360   -5.0010 C.3    47  VAL47       0.0022
     50  N         15.1750    6.8630   -6.6650 N.3   118  LYS118     -0.1245
     51  CA        14.7110    5.6490   -6.0050 C.3   118  LYS118      0.1561
     52  C         13.1930    5.5660   -5.8290 C.2   118  LYS118      0.2260
     53  O         12.6840    4.5430   -5.3820 O.2   118  LYS118     -0.2867
     54  CB        15.3620    5.5420   -4.6250 C.3   118  LYS118      0.0271
     55  CG        16.8730    5.5190   -4.6470 C.3   118  LYS118      0.0035
     56  CD        17.3730    4.2660   -5.3260 C.3   118  LYS118      0.0206
     57  CE        18.8870    4.1880   -5.2440 C.3   118  LYS118      0.1093
     58  NZ        19.4420    2.9500   -5.8520 N.3   118  LYS118     -0.1314
     59  N         19.8040    3.8570    2.4810 N.3   179  ASP179     -0.1225
     60  CA        19.5350    2.6080    1.7870 C.3   179  ASP179      0.1805
     61  C         20.5120    1.5760    2.3380 C.2   179  ASP179      0.2597
     62  O         21.6830    1.8770    2.5260 O.2   179  ASP179     -0.2718
     63  CB        19.7620    2.7990    0.2910 C.3   179  ASP179      0.1424
     64  CG        18.8710    1.9200   -0.5460 C.2   179  ASP179      0.3668
     65  OD1       19.0740    1.8790   -1.7740 O.co2 179  ASP179     -0.2456
     66  OD2       17.9610    1.2740    0.0210 O.co2 179  ASP179     -0.2456
     67  N         20.0260    0.3680    2.6120 N.am  180  PHE180     -0.1976
     68  CA        20.8500   -0.7130    3.1610 C.3   180  PHE180      0.1639
     69  C         21.4540   -0.3360    4.5260 C.2   180  PHE180      0.2290
     70  O         22.3240   -1.0260    5.0590 O.2   180  PHE180     -0.2864
     71  CB        21.9360   -1.0940    2.1430 C.3   180  PHE180      0.0560
     72  CG        21.3800   -1.6510    0.8410 C.ar  180  PHE180     -0.0200
     73  CD1       21.0740   -2.9950    0.7160 C.ar  180  PHE180     -0.0042
     74  CD2       21.0920   -0.8070   -0.2270 C.ar  180  PHE180     -0.0042
     75  CE1       20.4880   -3.4850   -0.4420 C.ar  180  PHE180     -0.0003
     76  CE2       20.5050   -1.2920   -1.3850 C.ar  180  PHE180     -0.0003
     77  CZ        20.2040   -2.6350   -1.4890 C.ar  180  PHE180     -0.0000
     78  N          9.6810    1.8230    0.8820 N.3   213  CYS213     -0.1221
     79  CA        10.9890    2.4440    0.7870 C.3   213  CYS213      0.1808
     80  C         11.2000    2.4560   -0.7290 C.2   213  CYS213      0.2602
     81  O         10.3210    2.9030   -1.4580 O.2   213  CYS213     -0.2717
     82  CB        12.0860    1.6540    1.5350 C.3   213  CYS213      0.0970
     83  SG        11.9620   -0.1480    1.6470 S.3   213  CYS213     -0.0800
     84  N         12.3290    1.9790   -1.2200 N.am  214  SER214     -0.1938
     85  CA        12.5360    1.9680   -2.6630 C.3   214  SER214      0.2055
     86  C         12.0700    0.6450   -3.2690 C.2   214  SER214      0.2642
     87  O         11.4520    0.6190   -4.3290 O.2   214  SER214     -0.2714
     88  CB        14.0110    2.2050   -3.0000 C.3   214  SER214      0.2130
     89  OG        14.1860    2.2960   -4.3980 O.3   214  SER214     -0.2179
     90  N         12.3690   -0.4540   -2.5950 N.am  215  ALA215     -0.1977
     91  CA        11.9510   -1.7680   -3.0610 C.3   215  ALA215      0.1597
     92  C         10.7720   -2.2460   -2.2170 C.2   215  ALA215      0.2287
     93  O         10.0000   -3.1180   -2.6290 O.2   215  ALA215     -0.2864
     94  CB        13.1050   -2.7570   -2.9530 C.3   215  ALA215      0.0319
     95  N         11.1410   -3.5750    0.9280 N.3   217  ILE217     -0.1231
     96  CA        11.5260   -4.7940    1.6710 C.3   217  ILE217      0.1692
     97  C         12.5990   -4.5490    2.7480 C.2   217  ILE217      0.2593
     98  O         12.5280   -5.0990    3.8500 O.2   217  ILE217     -0.2718
     99  CB        12.0690   -5.9260    0.7360 C.3   217  ILE217      0.0266
    100  CG1       13.3430   -5.4530    0.0180 C.3   217  ILE217      0.0019
    101  CG2       10.9930   -6.3630   -0.2580 C.3   217  ILE217      0.0020
    102  CD1       14.0270   -6.5150   -0.8320 C.3   217  ILE217      0.0001
    103  N         13.5770   -3.7080    2.4380 N.am  218  GLY218     -0.1942
    104  CA        14.6560   -3.4680    3.3780 C.3   218  GLY218      0.2014
    105  C         14.2650   -2.6890    4.6090 C.2   218  GLY218      0.2638
    106  O         14.1080   -3.2560    5.6910 O.2   218  GLY218     -0.2714
    107  N         14.1320   -1.3770    4.4350 N.am  219  ARG219     -0.1977
    108  CA        13.7490   -0.4900    5.5180 C.3   219  ARG219      0.1597
    109  C         12.2970   -0.7580    5.9250 C.2   219  ARG219      0.2287
    110  O         11.9510   -0.6860    7.1090 O.2   219  ARG219     -0.2864
    111  CB        13.9690    0.9690    5.0860 C.3   219  ARG219      0.0334
    112  CG        15.4550    1.3530    5.0150 C.3   219  ARG219      0.0492
    113  CD        15.7160    2.6820    4.2810 C.3   219  ARG219      0.2205
    114  NE        15.6940    2.5080    2.8330 N.pl3 219  ARG219     -0.0865
    115  CZ        15.9220    3.4790    1.9480 C.cat 219  ARG219      0.5346
    116  NH1       16.1990    4.7090    2.3580 N.pl3 219  ARG219      0.1354
    117  NH2       15.8680    3.2170    0.6490 N.pl3 219  ARG219      0.1354
    118  N         17.2100   -6.3190    4.5950 N.3   260  GLN260     -0.1245
    119  CA        18.2160   -6.5890    3.5770 C.3   260  GLN260      0.1566
    120  C         19.6610   -6.7830    3.9930 C.2   260  GLN260      0.2260
    121  O         20.5120   -7.0910    3.1550 O.2   260  GLN260     -0.2867
    122  CB        18.1340   -5.4970    2.5240 C.3   260  GLN260      0.0367
    123  CG        16.9260   -5.6490    1.6320 C.3   260  GLN260      0.0905
    124  CD        17.1710   -6.6490    0.5330 C.2   260  GLN260      0.2608
    125  OE1       17.8960   -6.3660   -0.4180 O.2   260  GLN260     -0.2717
    126  NE2       16.5820   -7.8290    0.6590 N.am  260  GLN260     -0.0878
    127  N         20.6720   -4.5990    9.7530 N.3   264  GLN264     -0.1245
    128  CA        19.2930   -4.1420    9.9400 C.3   264  GLN264      0.1566
    129  C         18.5870   -5.1540   10.8530 C.2   264  GLN264      0.2260
    130  O         17.6910   -4.7960   11.6180 O.2   264  GLN264     -0.2867
    131  CB        18.5400   -4.0460    8.5990 C.3   264  GLN264      0.0367
    132  CG        19.1050   -3.0680    7.5880 C.3   264  GLN264      0.0905
    133  CD        18.2060   -2.9170    6.3650 C.2   264  GLN264      0.2608
    134  OE1       17.5690   -3.8790    5.9130 O.2   264  GLN264     -0.2717
    135  NE2       18.1600   -1.7080    5.8160 N.am  264  GLN264     -0.0878
@<TRIPOS>BOND
     1    34    32    1
     2    32    33    1
     3    32    31    2
     4    31    30    1
     5    30    29    1
     6    29    28    1
     7    28    25    1
     8    25    24    1
     9    25    26    1
    10     4     3    2
    11    24    14   am
    12    27    26    2
    13    26    35   am
    14     1     2    1
    15     3     2    1
    16     3    12   am
    17     2     5    1
    18    14    15    2
    19    14    13    1
    20    13    12    1
    21    13    16    1
    22    35    36    1
    23     5     6    1
    24    10     9    1
    25    11     9    1
    26     6     7    1
    27    36    39    1
    28    36    37    1
    29     9     8    2
    30    16    17    1
    31    19    21   ar
    32    19    17   ar
    33    39    40    1
    34    41    40   ar
    35     8     7    1
    36    21    22   ar
    37    17    18   ar
    38    40    42   ar
    39    43    37   am
    40    43    44    1
    41    46    45    2
    42    37    38    2
    43    50    51    1
    44    22    23    1
    45    22    20   ar
    46    45    44    1
    47    18    20   ar
    48    44    47    1
    49    51    52    1
    50    51    54    1
    51    58    57    1
    52    52    53    2
    53    47    49    1
    54    47    48    1
    55    56    57    1
    56    56    55    1
    57    55    54    1
    58    89    88    1
    59    87    86    2
    60    86    85    1
    61    86    90   am
    62    91    94    1
    63    91    90    1
    64    91    92    1
    65    88    85    1
    66    85    84    1
    67    93    92    2
    68    65    64   ar
    69    77    76   ar
    70    77    75   ar
    71    81    80    2
    72    76    74   ar
    73    84    80   am
    74   102   100    1
    75    80    79    1
    76    64    66   ar
    77    64    63    1
    78    75    73   ar
    79   125   124    2
    80   101    99    1
    81    74    72   ar
    82   100    99    1
    83    63    60    1
    84   124   126   am
    85   124   123    1
    86   117   115    1
    87    73    72   ar
    88    99    96    1
    89    79    78    1
    90    79    82    1
    91    72    71    1
    92    95    96    1
    93    82    83    1
    94   123   122    1
    95    96    97    1
    96    60    61    1
    97    60    59    1
    98   115   116    1
    99   115   114    2
   100    71    68    1
   101    61    62    2
   102    61    67   am
   103   103    97   am
   104   103   104    1
   105   122   119    1
   106    67    68    1
   107    97    98    2
   108   114   113    1
   109   121   120    2
   110    68    69    1
   111   104   105    1
   112   119   120    1
   113   119   118    1
   114   113   112    1
   115   107   105   am
   116   107   108    1
   117    69    70    2
   118   105   106    2
   119   112   111    1
   120   111   108    1
   121   108   109    1
   122   135   133   am
   123   134   133    2
   124   109   110    2
   125   133   132    1
   126   132   131    1
   127   131   128    1
   128   127   128    1
   129   128   129    1
   130   129   130    2
