@<TRIPOS>MOLECULE
tmp/2cmbA00.pdb
 143 138 0 0 0
SMALL
GASTEIGER

@<TRIPOS>ATOM
      1  N          5.5360   34.7440   20.2260 N.3    47  LYS47      -0.1245
      2  CA         6.4160   35.1130   19.1220 C.3    47  LYS47       0.1561
      3  C          7.3970   36.2320   19.4670 C.2    47  LYS47       0.2260
      4  O          8.5910   36.1220   19.1840 O.2    47  LYS47      -0.2867
      5  CB         5.5820   35.5310   17.9090 C.3    47  LYS47       0.0271
      6  CG         6.3790   36.2290   16.8180 C.3    47  LYS47       0.0035
      7  CD         5.4710   36.7120   15.6930 C.3    47  LYS47       0.0206
      8  CE         6.2370   37.5670   14.6950 C.3    47  LYS47       0.1093
      9  NZ         5.3710   38.0380   13.5760 N.3    47  LYS47      -0.1314
     10  N         10.6850   35.4880   21.8700 N.3    50  ASN50      -0.1225
     11  CA        11.8070   34.6680   21.4330 C.3    50  ASN50       0.1785
     12  C         12.7350   35.4370   20.5200 C.2    50  ASN50       0.2597
     13  O         12.3020   36.0450   19.5430 O.2    50  ASN50      -0.2718
     14  CB        11.3060   33.4170   20.7060 C.3    50  ASN50       0.1169
     15  CG        10.5450   32.5080   21.6010 C.2    50  ASN50       0.2627
     16  OD1       11.0160   32.1480   22.6770 O.2    50  ASN50      -0.2716
     17  ND2        9.3290   32.1100   21.1670 N.am   50  ASN50      -0.0877
     18  N         14.0250   35.4060   20.8360 N.am   51  ARG51      -0.1966
     19  CA        15.0220   36.0970   20.0280 C.3    51  ARG51       0.1729
     20  C         15.2960   35.3300   18.7150 C.2    51  ARG51       0.2616
     21  O         15.4450   35.9350   17.6500 O.2    51  ARG51      -0.2715
     22  CB        16.3240   36.2470   20.8260 C.3    51  ARG51       0.0348
     23  CG        17.4620   36.8900   20.0450 C.3    51  ARG51       0.0492
     24  CD        18.6640   37.1490   20.9480 C.3    51  ARG51       0.2205
     25  NE        18.3880   38.1800   21.9460 N.pl3  51  ARG51      -0.0865
     26  CZ        18.3450   39.4820   21.6820 C.cat  51  ARG51       0.5346
     27  NH1       18.5610   39.9250   20.4500 N.pl3  51  ARG51       0.1354
     28  NH2       18.0850   40.3460   22.6530 N.pl3  51  ARG51       0.1354
     29  N         15.3590   34.0050   18.8070 N.am   52  TYR52      -0.1960
     30  CA        15.6140   33.1540   17.6480 C.3    52  TYR52       0.1771
     31  C         14.5280   32.0980   17.5370 C.2    52  TYR52       0.2619
     32  O         14.1730   31.4580   18.5300 O.2    52  TYR52      -0.2715
     33  CB        16.9730   32.4690   17.7880 C.3    52  TYR52       0.0574
     34  CG        18.1260   33.4310   17.9600 C.ar   52  TYR52      -0.0198
     35  CD1       18.5510   34.2360   16.9070 C.ar   52  TYR52      -0.0009
     36  CD2       18.7770   33.5520   19.1810 C.ar   52  TYR52      -0.0009
     37  CE1       19.5950   35.1360   17.0670 C.ar   52  TYR52       0.0417
     38  CE2       19.8180   34.4490   19.3510 C.ar   52  TYR52       0.0417
     39  CZ        20.2230   35.2380   18.2900 C.ar   52  TYR52       0.1957
     40  OH        21.2570   36.1340   18.4560 O.3    52  TYR52      -0.2866
     41  N         14.0060   31.8990   16.3310 N.am   53  ARG53      -0.1963
     42  CA        12.9540   30.9070   16.1360 C.3    53  ARG53       0.1729
     43  C         13.4710   29.4720   16.2330 C.2    53  ARG53       0.2616
     44  O         12.6950   28.5460   16.4540 O.2    53  ARG53      -0.2715
     45  CB        12.2480   31.1240   14.7870 C.3    53  ARG53       0.0348
     46  CG        13.0660   30.8070   13.5410 C.3    53  ARG53       0.0492
     47  CD        12.1700   30.9090   12.2960 C.3    53  ARG53       0.2205
     48  NE        12.8440   30.5080   11.0610 N.pl3  53  ARG53      -0.0865
     49  CZ        13.7610   31.2360   10.4320 C.cat  53  ARG53       0.5346
     50  NH1       14.1260   32.4130   10.9140 N.pl3  53  ARG53       0.1354
     51  NH2       14.3150   30.7860    9.3130 N.pl3  53  ARG53       0.1354
     52  N         14.7810   29.2850   16.0890 N.am   54  ASP54      -0.1957
     53  CA        15.3630   27.9480   16.1700 C.3    54  ASP54       0.1840
     54  C         15.9800   27.6310   17.5550 C.2    54  ASP54       0.2621
     55  O         16.6020   26.5850   17.7340 O.2    54  ASP54      -0.2715
     56  CB        16.4250   27.7580   15.0720 C.3    54  ASP54       0.1450
     57  CG        17.6120   28.6990   15.2320 C.2    54  ASP54       0.3671
     58  OD1       17.3850   29.8960   15.4990 O.co2  54  ASP54      -0.2456
     59  OD2       18.7710   28.2470   15.0800 O.co2  54  ASP54      -0.2456
     60  N         15.8170   28.5390   18.5140 N.am   55  VAL55      -0.1977
     61  CA        16.3320   28.3200   19.8660 C.3    55  VAL55       0.1596
     62  C         15.1690   28.4980   20.8380 C.2    55  VAL55       0.2287
     63  O         14.7380   29.6220   21.1080 O.2    55  VAL55      -0.2864
     64  CB        17.4630   29.3160   20.2240 C.3    55  VAL55       0.0276
     65  CG1       17.9930   29.0140   21.6250 C.3    55  VAL55       0.0022
     66  CG2       18.5910   29.2170   19.2080 C.3    55  VAL55       0.0022
     67  N         31.3580   35.6350   19.7570 N.3   187  ASP187     -0.1225
     68  CA        30.2330   34.7850   19.3930 C.3   187  ASP187      0.1805
     69  C         30.7740   33.6180   18.5520 C.2   187  ASP187      0.2597
     70  O         31.5660   33.8240   17.6310 O.2   187  ASP187     -0.2718
     71  CB        29.2140   35.6110   18.6020 C.3   187  ASP187      0.1424
     72  CG        27.8980   34.9170   18.4530 C.2   187  ASP187      0.3668
     73  OD1       27.5720   34.0840   19.3190 O.co2 187  ASP187     -0.2456
     74  OD2       27.1710   35.2100   17.4800 O.co2 187  ASP187     -0.2456
     75  N         30.3490   32.4000   18.8810 N.am  188  PHE188     -0.1976
     76  CA        30.8080   31.1930   18.1930 C.3   188  PHE188      0.1639
     77  C         32.3270   30.9990   18.3500 C.2   188  PHE188      0.2290
     78  O         32.9630   30.2950   17.5600 O.2   188  PHE188     -0.2864
     79  CB        30.4330   31.2490   16.7080 C.3   188  PHE188      0.0560
     80  CG        28.9650   31.0490   16.4500 C.ar  188  PHE188     -0.0200
     81  CD1       28.3960   29.7870   16.5420 C.ar  188  PHE188     -0.0042
     82  CD2       28.1490   32.1260   16.1340 C.ar  188  PHE188     -0.0042
     83  CE1       27.0420   29.6020   16.3220 C.ar  188  PHE188     -0.0003
     84  CE2       26.7900   31.9460   15.9140 C.ar  188  PHE188     -0.0003
     85  CZ        26.2390   30.6830   16.0090 C.ar  188  PHE188     -0.0000
     86  N         23.9810   34.3380   27.0510 N.3   221  CYS221     -0.1221
     87  CA        24.8370   34.9280   26.0340 C.3   221  CYS221      0.1808
     88  C         23.7830   35.5220   25.0980 C.2   221  CYS221      0.2602
     89  O         22.8820   36.2080   25.5760 O.2   221  CYS221     -0.2717
     90  CB        25.7210   33.8700   25.3450 C.3   221  CYS221      0.0970
     91  SG        25.0380   32.2050   25.0880 S.3   221  CYS221     -0.0800
     92  N         23.8580   35.2910   23.7940 N.am  222  SER222     -0.1938
     93  CA        22.8080   35.8370   22.9400 C.3   222  SER222      0.2055
     94  C         21.6340   34.8290   22.8330 C.2   222  SER222      0.2642
     95  O         20.4840   35.1710   23.1040 O.2   222  SER222     -0.2714
     96  CB        23.3380   36.1680   21.5460 C.3   222  SER222      0.2130
     97  OG        22.3150   36.8070   20.7970 O.3   222  SER222     -0.2179
     98  N         21.9330   33.5940   22.4490 N.am  223  ALA223     -0.1977
     99  CA        20.8970   32.5680   22.3340 C.3   223  ALA223      0.1597
    100  C         20.7830   31.7570   23.6330 C.2   223  ALA223      0.2287
    101  O         19.7970   31.0570   23.8550 O.2   223  ALA223     -0.2864
    102  CB        21.2120   31.6290   21.1640 C.3   223  ALA223      0.0319
    103  N         22.9610   29.3180   24.5590 N.3   225  ILE225     -0.1231
    104  CA        23.3410   27.9250   24.3200 C.3   225  ILE225      0.1692
    105  C         24.8510   27.6540   24.0190 C.2   225  ILE225      0.2593
    106  O         25.4110   26.6960   24.5390 O.2   225  ILE225     -0.2718
    107  CB        22.5020   27.2920   23.1680 C.3   225  ILE225      0.0266
    108  CG1       22.7640   28.0200   21.8430 C.3   225  ILE225      0.0019
    109  CG2       21.0260   27.3370   23.5220 C.3   225  ILE225      0.0020
    110  CD1       21.9910   27.4500   20.6580 C.3   225  ILE225      0.0001
    111  N         25.4800   28.4880   23.1890 N.am  226  GLY226     -0.1942
    112  CA        26.8800   28.2760   22.8360 C.3   226  GLY226      0.2014
    113  C         27.8530   28.5950   23.9540 C.2   226  GLY226      0.2638
    114  O         28.4500   27.7050   24.5660 O.2   226  GLY226     -0.2714
    115  N         28.0260   29.8830   24.2140 N.am  227  ARG227     -0.1977
    116  CA        28.9210   30.3240   25.2690 C.3   227  ARG227      0.1597
    117  C         28.3720   29.9080   26.6490 C.2   227  ARG227      0.2287
    118  O         29.1240   29.4580   27.5120 O.2   227  ARG227     -0.2864
    119  CB        29.1150   31.8390   25.1550 C.3   227  ARG227      0.0334
    120  CG        29.9990   32.2030   23.9550 C.3   227  ARG227      0.0492
    121  CD        29.9490   33.6850   23.5840 C.3   227  ARG227      0.2205
    122  NE        28.6780   34.0470   22.9620 N.pl3 227  ARG227     -0.0865
    123  CZ        28.3850   35.2640   22.5150 C.cat 227  ARG227      0.5346
    124  NH1       29.2740   36.2440   22.6200 N.pl3 227  ARG227      0.1354
    125  NH2       27.1980   35.5050   21.9680 N.pl3 227  ARG227      0.1354
    126  N         28.1570   25.3070   20.8190 N.3   268  GLN268     -0.1245
    127  CA        27.9140   25.4920   19.3950 C.3   268  GLN268      0.1566
    128  C         29.0060   25.2220   18.3850 C.2   268  GLN268      0.2260
    129  O         28.7650   25.3420   17.1840 O.2   268  GLN268     -0.2867
    130  CB        27.3660   26.9060   19.1950 C.3   268  GLN268      0.0367
    131  CG        25.9250   27.0560   19.6710 C.3   268  GLN268      0.0905
    132  CD        24.9440   26.5400   18.6470 C.2   268  GLN268      0.2608
    133  OE1       24.8130   27.1100   17.5630 O.2   268  GLN268     -0.2717
    134  NE2       24.2440   25.4270   18.9790 N.am  268  GLN268     -0.0878
    135  N         34.5750   25.0670   20.9670 N.3   272  GLN272     -0.1245
    136  CA        34.0380   25.3880   22.2840 C.3   272  GLN272      0.1566
    137  C         34.0660   24.1140   23.1350 C.2   272  GLN272      0.2260
    138  O         34.2930   24.1740   24.3430 O.2   272  GLN272     -0.2867
    139  CB        32.6110   25.9340   22.1760 C.3   272  GLN272      0.0367
    140  CG        32.5550   27.3410   21.6070 C.3   272  GLN272      0.0905
    141  CD        31.1520   27.9060   21.5690 C.2   272  GLN272      0.2608
    142  OE1       30.1720   27.1660   21.5600 O.2   272  GLN272     -0.2717
    143  NE2       31.0470   29.2550   21.5260 N.am  272  GLN272     -0.0878
@<TRIPOS>BOND
     1    51    49    1
     2    49    50    1
     3    49    48    2
     4    48    47    1
     5    47    46    1
     6    46    45    1
     7     9     8    1
     8     8     7    1
     9    45    42    1
    10    56    57    1
    11    56    53    1
    12    59    57   ar
    13    57    58   ar
    14     7     6    1
    15    84    85   ar
    16    84    82   ar
    17    85    83   ar
    18    52    53    1
    19    52    43   am
    20    82    80   ar
    21    42    43    1
    22    42    41    1
    23    53    54    1
    24    43    44    2
    25    83    81   ar
    26    41    31   am
    27    80    81   ar
    28    80    79    1
    29    79    76    1
    30     6     5    1
    31    35    37   ar
    32    35    34   ar
    33    37    39   ar
    34   129   128    2
    35    74    72   ar
    36    31    30    1
    37    31    32    2
    38    54    55    2
    39    54    60   am
    40    78    77    2
    41   133   132    2
    42    70    69    2
    43    30    33    1
    44    30    29    1
    45    21    20    2
    46    33    34    1
    47     5     2    1
    48    34    36   ar
    49    76    77    1
    50    76    75    1
    51    39    40    1
    52    39    38   ar
    53   128   127    1
    54    72    71    1
    55    72    73   ar
    56    60    61    1
    57    69    75   am
    58    69    68    1
    59    71    68    1
    60   132   134   am
    61   132   131    1
    62    20    29   am
    63    20    19    1
    64     2     3    1
    65     2     1    1
    66    36    38   ar
    67     4     3    2
    68   130   127    1
    69   130   131    1
    70    66    64    1
    71    68    67    1
    72   127   126    1
    73    13    12    2
    74    61    64    1
    75    61    62    1
    76    19    22    1
    77    19    18    1
    78    23    22    1
    79    23    24    1
    80    64    65    1
    81    27    26    1
    82    12    18   am
    83    12    11    1
    84   110   108    1
    85    14    11    1
    86    14    15    1
    87    97    96    1
    88    62    63    2
    89    24    25    1
    90   135   136    1
    91   102    99    1
    92    17    15   am
    93    11    10    1
    94   143   141   am
    95    96    93    1
    96   142   141    2
    97   141   140    1
    98    15    16    2
    99   140   139    1
   100    26    25    2
   101    26    28    1
   102   108   107    1
   103   125   123    1
   104   139   136    1
   105   136   137    1
   106    99    98    1
   107    99   100    1
   108    98    94   am
   109   123   124    1
   110   123   122    2
   111    94    93    1
   112    94    95    2
   113   112   111    1
   114   112   113    1
   115    93    92    1
   116   122   121    1
   117   137   138    2
   118   107   109    1
   119   107   104    1
   120   111   105   am
   121   121   120    1
   122   100   101    2
   123    92    88   am
   124   113   115   am
   125   113   114    2
   126   120   119    1
   127   105   104    1
   128   105   106    2
   129   115   116    1
   130   104   103    1
   131    91    90    1
   132    88    89    2
   133    88    87    1
   134   119   116    1
   135   116   117    1
   136    90    87    1
   137    87    86    1
   138   117   118    2
