@<TRIPOS>MOLECULE
tmp/2cmcA00.pdb
 130 127 0 0 0
SMALL
GASTEIGER

@<TRIPOS>ATOM
      1  N         14.6780   35.2390   20.1430 N.3    50  ARG50      -0.1231
      2  CA        15.6600   35.9430   19.3320 C.3    50  ARG50       0.1694
      3  C         15.9150   35.2230   18.0050 C.2    50  ARG50       0.2592
      4  O         16.1200   35.8640   16.9660 O.2    50  ARG50      -0.2718
      5  CB        16.9670   36.0660   20.1210 C.3    50  ARG50       0.0321
      6  CG        18.0750   36.8080   19.4080 C.3    50  ARG50       0.0489
      7  CD        19.2490   37.0400   20.3730 C.3    50  ARG50       0.2205
      8  NE        18.9290   38.0160   21.4260 N.pl3  50  ARG50      -0.0865
      9  CZ        18.9230   39.3300   21.2260 C.cat  50  ARG50       0.5346
     10  NH1       19.2230   39.8070   20.0270 N.pl3  50  ARG50       0.1354
     11  NH2       18.6090   40.1630   22.2060 N.pl3  50  ARG50       0.1354
     12  N         15.9170   33.8920   18.0400 N.am   51  TYR51      -0.1962
     13  CA        16.1660   33.0880   16.8430 C.3    51  TYR51       0.1771
     14  C         15.1360   31.9650   16.7310 C.2    51  TYR51       0.2619
     15  O         14.7460   31.3560   17.7230 O.2    51  TYR51      -0.2715
     16  CB        17.5570   32.4550   16.8970 C.3    51  TYR51       0.0574
     17  CG        18.6960   33.4080   17.2280 C.ar   51  TYR51      -0.0198
     18  CD1       19.2460   34.2310   16.2570 C.ar   51  TYR51      -0.0009
     19  CD2       19.2770   33.4150   18.5040 C.ar   51  TYR51      -0.0009
     20  CE1       20.3500   35.0280   16.5330 C.ar   51  TYR51       0.0417
     21  CE2       20.3880   34.2120   18.7860 C.ar   51  TYR51       0.0417
     22  CZ        20.9170   35.0180   17.7920 C.ar   51  TYR51       0.1957
     23  OH        21.9920   35.8460   18.0670 O.3    51  TYR51      -0.2866
     24  N         14.6980   31.6860   15.5170 N.am   52  ARG52      -0.1963
     25  CA        13.7250   30.6270   15.3410 C.3    52  ARG52       0.1729
     26  C         14.3700   29.2680   15.4250 C.2    52  ARG52       0.2616
     27  O         13.6920   28.2760   15.6380 O.2    52  ARG52      -0.2715
     28  CB        12.9900   30.7800   14.0100 C.3    52  ARG52       0.0348
     29  CG        13.8760   31.0480   12.8150 C.3    52  ARG52       0.0492
     30  CD        13.0390   31.0950   11.5400 C.3    52  ARG52       0.2205
     31  NE        13.8820   30.8420   10.3800 N.pl3  52  ARG52      -0.0865
     32  CZ        14.6020   31.7750    9.7770 C.cat  52  ARG52       0.5346
     33  NH1       14.5580   33.0280   10.2260 N.pl3  52  ARG52       0.1354
     34  NH2       15.3830   31.4440    8.7540 N.pl3  52  ARG52       0.1354
     35  N         15.6860   29.2000   15.2740 N.am   53  ASP53      -0.1957
     36  CA        16.3240   27.8980   15.3550 C.3    53  ASP53       0.1840
     37  C         16.8110   27.5340   16.7550 C.2    53  ASP53       0.2621
     38  O         17.3190   26.4460   16.9560 O.2    53  ASP53      -0.2715
     39  CB        17.4630   27.7840   14.3370 C.3    53  ASP53       0.1450
     40  CG        18.5650   28.7970   14.5630 C.2    53  ASP53       0.3671
     41  OD1       18.2370   29.9860   14.6810 O.co2  53  ASP53      -0.2456
     42  OD2       19.7590   28.4100   14.6000 O.co2  53  ASP53      -0.2456
     43  N         16.6550   28.4420   17.7170 N.am   54  VAL54      -0.1977
     44  CA        17.0740   28.1830   19.0880 C.3    54  VAL54       0.1596
     45  C         15.8660   28.3120   20.0270 C.2    54  VAL54       0.2287
     46  O         15.3910   29.4110   20.2980 O.2    54  VAL54      -0.2864
     47  CB        18.1920   29.1620   19.5120 C.3    54  VAL54       0.0276
     48  CG1       18.6420   28.8600   20.9480 C.3    54  VAL54       0.0022
     49  CG2       19.3880   29.0420   18.5340 C.3    54  VAL54       0.0022
     50  N         31.2990   35.6140   19.4700 N.3   186  ASP186     -0.1225
     51  CA        30.2920   34.6090   19.1690 C.3   186  ASP186      0.1805
     52  C         30.9610   33.5390   18.3240 C.2   186  ASP186      0.2597
     53  O         31.7540   33.8420   17.4260 O.2   186  ASP186     -0.2718
     54  CB        29.0970   35.2380   18.4380 C.3   186  ASP186      0.1424
     55  CG        29.5090   35.9880   17.2080 C.2   186  ASP186      0.3668
     56  OD1       29.3410   35.4540   16.0920 O.co2 186  ASP186     -0.2456
     57  OD2       30.0210   37.1130   17.3490 O.co2 186  ASP186     -0.2456
     58  N         30.6350   32.2850   18.6350 N.am  187  PHE187     -0.1976
     59  CA        31.2000   31.1290   17.9510 C.3   187  PHE187      0.1639
     60  C         32.7340   30.9780   18.1000 C.2   187  PHE187      0.2290
     61  O         33.3460   30.1960   17.3690 O.2   187  PHE187     -0.2864
     62  CB        30.7920   31.1590   16.4650 C.3   187  PHE187      0.0560
     63  CG        29.3280   30.8700   16.2410 C.ar  187  PHE187     -0.0200
     64  CD1       28.8170   29.5990   16.4740 C.ar  187  PHE187     -0.0042
     65  CD2       28.4570   31.8710   15.8330 C.ar  187  PHE187     -0.0042
     66  CE1       27.4450   29.3140   16.3050 C.ar  187  PHE187     -0.0003
     67  CE2       27.0700   31.5980   15.6580 C.ar  187  PHE187     -0.0003
     68  CZ        26.5760   30.3150   15.8960 C.ar  187  PHE187     -0.0000
     69  N         24.3640   34.2450   26.7250 N.3   220  CYS220     -0.1221
     70  CA        25.2500   34.7800   25.7220 C.3   220  CYS220      0.1808
     71  C         24.2390   35.3200   24.7350 C.2   220  CYS220      0.2602
     72  O         23.2300   35.8800   25.1570 O.2   220  CYS220     -0.2717
     73  CB        26.1560   33.7020   25.1170 C.3   220  CYS220      0.0970
     74  SG        25.5250   32.0120   24.9680 S.3   220  CYS220     -0.0800
     75  N         24.4510   35.1720   23.4410 N.am  221  SER221     -0.1938
     76  CA        23.4550   35.7090   22.5290 C.3   221  SER221      0.2055
     77  C         22.2650   34.7480   22.3620 C.2   221  SER221      0.2643
     78  O         21.1070   35.1410   22.5280 O.2   221  SER221     -0.2714
     79  CB        24.0970   36.0380   21.1890 C.3   221  SER221      0.2130
     80  OG        23.1330   36.6350   20.3570 O.3   221  SER221     -0.2179
     81  N         22.5540   33.4920   22.0440 N.am  222  ALA222     -0.1963
     82  CA        21.5330   32.4540   21.8860 C.3   222  ALA222      0.1728
     83  C         21.3930   31.5920   23.1560 C.2   222  ALA222      0.2617
     84  O         20.3810   30.9090   23.3350 O.2   222  ALA222     -0.2715
     85  CB        21.8780   31.5700   20.7030 C.3   222  ALA222      0.0334
     86  N         22.4020   31.6220   24.0350 N.am  223  GLY223     -0.1940
     87  CA        22.3440   30.8300   25.2620 C.3   223  GLY223      0.2014
     88  C         22.6630   29.3400   25.1050 C.2   223  GLY223      0.2639
     89  O         22.1760   28.5090   25.8850 O.2   223  GLY223     -0.2714
     90  N         23.4680   28.9950   24.0960 N.am  224  ILE224     -0.1963
     91  CA        23.8330   27.6040   23.8750 C.3   224  ILE224      0.1727
     92  C         25.3450   27.3730   23.6260 C.2   224  ILE224      0.2617
     93  O         25.9320   26.4410   24.1890 O.2   224  ILE224     -0.2715
     94  CB        22.9920   26.9620   22.7050 C.3   224  ILE224      0.0290
     95  CG1       23.3350   27.5870   21.3470 C.3   224  ILE224      0.0022
     96  CG2       21.4810   27.1490   22.9850 C.3   224  ILE224      0.0023
     97  CD1       22.4450   27.0630   20.1680 C.3   224  ILE224      0.0001
     98  N         25.9740   28.2370   22.8290 N.am  225  GLY225     -0.1940
     99  CA        27.3870   28.0640   22.5180 C.3   225  GLY225      0.2014
    100  C         28.3100   28.3760   23.6680 C.2   225  GLY225      0.2638
    101  O         28.9100   27.4770   24.2590 O.2   225  GLY225     -0.2714
    102  N         28.4240   29.6600   23.9720 N.am  226  ARG226     -0.1977
    103  CA        29.2550   30.1360   25.0560 C.3   226  ARG226      0.1597
    104  C         28.6710   29.7050   26.4040 C.2   226  ARG226      0.2287
    105  O         29.4040   29.2580   27.2780 O.2   226  ARG226     -0.2864
    106  CB        29.3660   31.6580   24.9770 C.3   226  ARG226      0.0334
    107  CG        30.2630   32.1300   23.8420 C.3   226  ARG226      0.0492
    108  CD        30.0670   33.6040   23.4930 C.3   226  ARG226      0.2205
    109  NE        28.8080   33.8440   22.7750 N.pl3 226  ARG226     -0.0865
    110  CZ        28.4870   35.0010   22.1930 C.cat 226  ARG226      0.5346
    111  NH1       29.3270   36.0380   22.2430 N.pl3 226  ARG226      0.1354
    112  NH2       27.3370   35.1180   21.5470 N.pl3 226  ARG226      0.1354
    113  N         28.8250   25.2270   20.5980 N.3   267  GLN267     -0.1245
    114  CA        28.6110   25.3660   19.1760 C.3   267  GLN267      0.1566
    115  C         29.7230   25.0590   18.1920 C.2   267  GLN267      0.2260
    116  O         29.4530   25.0150   16.9960 O.2   267  GLN267     -0.2867
    117  CB        28.0570   26.7660   18.9010 C.3   267  GLN267      0.0367
    118  CG        26.5680   26.8730   19.1810 C.3   267  GLN267      0.0905
    119  CD        25.7360   26.1530   18.1230 C.2   267  GLN267      0.2608
    120  OE1       25.7340   26.5440   16.9540 O.2   267  GLN267     -0.2717
    121  NE2       25.0320   25.1060   18.5230 N.am  267  GLN267     -0.0878
    122  N         35.2740   25.0890   20.7870 N.3   271  GLN271     -0.1245
    123  CA        34.6720   25.3890   22.0860 C.3   271  GLN271      0.1566
    124  C         34.6780   24.1280   22.9540 C.2   271  GLN271      0.2260
    125  O         34.7780   24.2280   24.1720 O.2   271  GLN271     -0.2867
    126  CB        33.2280   25.8970   21.9490 C.3   271  GLN271      0.0367
    127  CG        33.0970   27.2390   21.2620 C.3   271  GLN271      0.0905
    128  CD        31.6840   27.7760   21.2990 C.2   271  GLN271      0.2608
    129  OE1       30.7270   27.0140   21.2970 O.2   271  GLN271     -0.2717
    130  NE2       31.5490   29.0900   21.3210 N.am  271  GLN271     -0.0878
@<TRIPOS>BOND
     1    34    32    1
     2    32    33    1
     3    32    31    2
     4    31    30    1
     5    30    29    1
     6    29    28    1
     7    28    25    1
     8    39    40    1
     9    39    36    1
    10    40    42   ar
    11    40    41   ar
    12    35    36    1
    13    35    26   am
    14    25    26    1
    15    25    24    1
    16    36    37    1
    17    26    27    2
    18    24    14   am
    19    67    65   ar
    20    67    68   ar
    21    65    63   ar
    22    68    66   ar
    23    56    55   ar
    24    63    62    1
    25    63    64   ar
    26    18    20   ar
    27    18    17   ar
    28    66    64   ar
    29    62    59    1
    30    20    22   ar
    31    14    13    1
    32    14    15    2
    33    37    38    2
    34    37    43   am
    35    13    16    1
    36    13    12    1
    37    16    17    1
    38   120   119    2
    39     4     3    2
    40   116   115    2
    41    55    57   ar
    42    55    54    1
    43    17    19   ar
    44    61    60    2
    45    53    52    2
    46    43    44    1
    47    22    23    1
    48    22    21   ar
    49    59    60    1
    50    59    58    1
    51     3    12   am
    52     3     2    1
    53   119   121   am
    54   119   118    1
    55   115   114    1
    56    52    58   am
    57    52    51    1
    58    54    51    1
    59    19    21   ar
    60    49    47    1
    61   117   114    1
    62   117   118    1
    63    44    47    1
    64    44    45    1
    65    51    50    1
    66   114   113    1
    67     2     5    1
    68     2     1    1
    69     6     5    1
    70     6     7    1
    71    47    48    1
    72    45    46    2
    73    10     9    1
    74    97    95    1
    75    80    79    1
    76     7     8    1
    77    85    82    1
    78   122   123    1
    79    79    76    1
    80     9     8    2
    81     9    11    1
    82   127   128    1
    83   127   126    1
    84   129   128    2
    85   128   130   am
    86    95    94    1
    87   112   110    1
    88    82    81    1
    89    82    83    1
    90   126   123    1
    91    81    77   am
    92   123   124    1
    93   110   111    1
    94   110   109    2
    95    77    78    2
    96    77    76    1
    97    99    98    1
    98    99   100    1
    99    76    75    1
   100    94    96    1
   101    94    91    1
   102   109   108    1
   103    98    92   am
   104   124   125    2
   105    83    84    2
   106    83    86   am
   107    75    71   am
   108   108   107    1
   109    92    91    1
   110    92    93    2
   111   100   102   am
   112   100   101    2
   113   107   106    1
   114    91    90    1
   115   102   103    1
   116    86    87    1
   117    90    88   am
   118    71    72    2
   119    71    70    1
   120    74    73    1
   121   106   103    1
   122   103   104    1
   123    88    87    1
   124    88    89    2
   125    73    70    1
   126    70    69    1
   127   104   105    2
