@<TRIPOS>MOLECULE
tmp/2cmeB00.pdb
 91 82 0 0 0
SMALL
GASTEIGER

@<TRIPOS>ATOM
      1  N         50.5250   11.8840   11.5720 N.3     8  VAL8       -0.1245
      2  CA        51.8660   12.3980   11.5700 C.3     8  VAL8        0.1561
      3  C         52.7490   11.4080   12.3250 C.2     8  VAL8        0.2260
      4  O         52.6190   11.2230   13.5470 O.2     8  VAL8       -0.2867
      5  CB        51.8970   13.7530   12.2300 C.3     8  VAL8        0.0252
      6  CG1       53.3090   14.2710   12.2320 C.3     8  VAL8        0.0019
      7  CG2       50.9490   14.7010   11.4920 C.3     8  VAL8        0.0019
      8  N         57.5710   12.6350   14.7140 N.3    12  ILE12      -0.1245
      9  CA        57.1290   13.9220   15.2280 C.3    12  ILE12       0.1561
     10  C         55.8720   13.7470   16.0670 C.2    12  ILE12       0.2260
     11  O         54.8340   13.2850   15.5730 O.2    12  ILE12      -0.2867
     12  CB        56.7540   14.8770   14.0850 C.3    12  ILE12       0.0252
     13  CG1       57.7870   14.7930   12.9560 C.3    12  ILE12       0.0019
     14  CG2       56.6380   16.2850   14.6280 C.3    12  ILE12       0.0019
     15  CD1       57.2820   15.2960   11.5990 C.3    12  ILE12       0.0001
     16  N         53.6120   15.3930   19.7610 N.3    14  LEU14      -0.1245
     17  CA        53.4700   16.4700   20.7260 C.3    14  LEU14       0.1561
     18  C         53.9040   16.0160   22.1090 C.2    14  LEU14       0.2260
     19  O         54.0010   14.8170   22.3690 O.2    14  LEU14      -0.2867
     20  CB        52.0210   16.9300   20.7910 C.3    14  LEU14       0.0270
     21  CG        51.8890   18.4310   20.6170 C.3    14  LEU14       0.0019
     22  CD1       52.3750   18.8150   19.2320 C.3    14  LEU14       0.0001
     23  CD2       50.4540   18.8290   20.7960 C.3    14  LEU14       0.0001
     24  N         50.4240   12.7090   16.2020 N.3    26  ILE26      -0.1245
     25  CA        49.5810   13.8040   15.7610 C.3    26  ILE26       0.1561
     26  C         48.6390   13.5510   14.6010 C.2    26  ILE26       0.2260
     27  O         49.0230   13.0100   13.5660 O.2    26  ILE26      -0.2867
     28  CB        50.4440   15.0360   15.4210 C.3    26  ILE26       0.0252
     29  CG1       51.3310   15.3990   16.6180 C.3    26  ILE26       0.0019
     30  CG2       49.5450   16.2120   15.0480 C.3    26  ILE26       0.0019
     31  CD1       52.4590   16.3710   16.2830 C.3    26  ILE26       0.0001
     32  N         45.8350   15.2280   11.8690 N.3    28  LEU28      -0.1245
     33  CA        45.4800   16.4750   11.2160 C.3    28  LEU28       0.1561
     34  C         44.1380   16.5360   10.4990 C.2    28  LEU28       0.2260
     35  O         43.7890   15.6960    9.6500 O.2    28  LEU28      -0.2867
     36  CB        46.6110   16.8690   10.2610 C.3    28  LEU28       0.0270
     37  CG        47.9850   16.5710   10.8840 C.3    28  LEU28       0.0019
     38  CD1       49.0910   16.8720    9.9020 C.3    28  LEU28       0.0001
     39  CD2       48.1590   17.3820   12.1530 C.3    28  LEU28       0.0001
     40  N         46.3850   24.0280    4.5890 N.3    33  ASN33      -0.1225
     41  CA        47.5870   23.2430    4.7980 C.3    33  ASN33       0.1785
     42  C         48.5560   24.0070    5.6950 C.2    33  ASN33       0.2597
     43  O         48.6900   25.2280    5.5960 O.2    33  ASN33      -0.2718
     44  CB        48.2520   22.9160    3.4640 C.3    33  ASN33       0.1169
     45  CG        49.2180   21.7570    3.5730 C.2    33  ASN33       0.2627
     46  OD1       50.1060   21.7520    4.4260 O.2    33  ASN33      -0.2716
     47  ND2       49.0490   20.7630    2.7090 N.am   33  ASN33      -0.0877
     48  N         49.2290   23.2750    6.5740 N.am   34  LEU34      -0.1966
     49  CA        50.1770   23.8640    7.5060 C.3    34  LEU34       0.1728
     50  C         51.6200   23.6770    7.1110 C.2    34  LEU34       0.2617
     51  O         52.0000   22.6260    6.5900 O.2    34  LEU34      -0.2715
     52  CB        50.0000   23.2480    8.8800 C.3    34  LEU34       0.0311
     53  CG        49.1020   23.9890    9.8540 C.3    34  LEU34       0.0022
     54  CD1       47.7110   24.2670    9.2520 C.3    34  LEU34       0.0001
     55  CD2       49.0320   23.1370   11.1110 C.3    34  LEU34       0.0001
     56  N         52.4280   24.6950    7.3850 N.am   35  SER35      -0.1936
     57  CA        53.8530   24.6240    7.0940 C.3    35  SER35       0.2055
     58  C         54.6190   24.5770    8.4060 C.2    35  SER35       0.2642
     59  O         54.2450   25.2340    9.3790 O.2    35  SER35      -0.2714
     60  CB        54.3130   25.8440    6.2960 C.3    35  SER35       0.2130
     61  OG        55.7080   25.7870    6.0390 O.3    35  SER35      -0.2179
     62  N         55.6860   23.7910    8.4390 N.am   36  LEU36      -0.1977
     63  CA        56.4860   23.7050    9.6430 C.3    36  LEU36       0.1596
     64  C         57.9540   23.9200    9.3240 C.2    36  LEU36       0.2287
     65  O         58.4630   23.4070    8.3270 O.2    36  LEU36      -0.2864
     66  CB        56.2940   22.3570   10.3210 C.3    36  LEU36       0.0297
     67  CG        57.1260   22.2340   11.5980 C.3    36  LEU36       0.0022
     68  CD1       56.8290   23.3840   12.5780 C.3    36  LEU36       0.0001
     69  CD2       56.8020   20.9170   12.2310 C.3    36  LEU36       0.0001
     70  N         57.3830   16.9190    6.9170 N.3    58  VAL58      -0.1245
     71  CA        56.3830   16.1680    7.6560 C.3    58  VAL58       0.1561
     72  C         55.9930   14.9670    6.8110 C.2    58  VAL58       0.2260
     73  O         55.3870   15.1210    5.7500 O.2    58  VAL58      -0.2867
     74  CB        55.1270   17.0050    7.8860 C.3    58  VAL58       0.0252
     75  CG1       54.1610   16.2380    8.7550 C.3    58  VAL58       0.0019
     76  CG2       55.4940   18.3320    8.5110 C.3    58  VAL58       0.0019
     77  N         53.7010   12.8350    7.2370 N.3    60  MET60      -0.1245
     78  CA        52.3670   12.3990    7.6310 C.3    60  MET60       0.1570
     79  C         51.7470   11.4270    6.6310 C.2    60  MET60       0.2261
     80  O         52.0430   11.4590    5.4320 O.2    60  MET60      -0.2867
     81  CB        51.4430   13.5970    7.7580 C.3    60  MET60       0.0387
     82  CG        51.3670   14.3750    6.4690 C.3    60  MET60       0.0595
     83  SD        49.9030   15.3770    6.3110 S.3    60  MET60      -0.1393
     84  CE        49.1740   14.6510    4.8570 C.3    60  MET60       0.0692
     85  N         44.9520   17.8800   15.6780 N.3    76  VAL76      -0.1245
     86  CA        45.0630   19.2380   15.2460 C.3    76  VAL76       0.1561
     87  C         43.9230   19.5240   14.3140 C.2    76  VAL76       0.2260
     88  O         44.0060   19.2590   13.1140 O.2    76  VAL76      -0.2867
     89  CB        46.3400   19.4710   14.4920 C.3    76  VAL76       0.0252
     90  CG1       46.5370   20.9680   14.2980 C.3    76  VAL76       0.0019
     91  CG2       47.4910   18.8250   15.2370 C.3    76  VAL76       0.0019
@<TRIPOS>BOND
     1    47    45   am
     2    44    45    1
     3    44    41    1
     4    45    46    2
     5    40    41    1
     6    41    42    1
     7    84    83    1
     8    80    79    2
     9    43    42    2
    10    42    48   am
    11    73    72    2
    12    61    60    1
    13    60    57    1
    14    83    82    1
    15    82    81    1
    16    48    49    1
    17    51    50    2
    18    79    78    1
    19    72    71    1
    20    70    71    1
    21    57    56    1
    22    57    58    1
    23    50    56   am
    24    50    49    1
    25    77    78    1
    26    49    52    1
    27    78    81    1
    28    71    74    1
    29    74    76    1
    30    74    75    1
    31    65    64    2
    32    58    62   am
    33    58    59    2
    34    62    63    1
    35    52    53    1
    36    54    53    1
    37    64    63    1
    38    63    66    1
    39    35    34    2
    40    53    55    1
    41    38    37    1
    42    36    37    1
    43    36    33    1
    44    66    67    1
    45    34    33    1
    46    37    39    1
    47    33    32    1
    48     7     5    1
    49     2     1    1
    50     2     5    1
    51     2     3    1
    52    67    69    1
    53    67    68    1
    54    15    13    1
    55     5     6    1
    56     3     4    2
    57    13    12    1
    58    88    87    2
    59    27    26    2
    60    12    14    1
    61    12     9    1
    62    90    89    1
    63    87    86    1
    64    89    91    1
    65    89    86    1
    66    26    25    1
    67     8     9    1
    68    30    28    1
    69     9    10    1
    70    86    85    1
    71    28    25    1
    72    28    29    1
    73    11    10    2
    74    25    24    1
    75    31    29    1
    76    22    21    1
    77    16    17    1
    78    21    20    1
    79    21    23    1
    80    17    20    1
    81    17    18    1
    82    18    19    2
