@<TRIPOS>MOLECULE
tmp/2cmfA00.pdb
 248 247 0 0 0
SMALL
GASTEIGER

@<TRIPOS>ATOM
      1  N         -7.5340   65.5170   66.1000 N.3    67  TYR67      -0.1241
      2  CA        -7.0720   65.5930   67.4860 C.3    67  TYR67       0.1605
      3  C         -6.4570   66.9810   67.6830 C.2    67  TYR67       0.2264
      4  O         -5.6390   67.4080   66.8840 O.2    67  TYR67      -0.2867
      5  CB        -5.9470   64.5750   67.6900 C.3    67  TYR67       0.0534
      6  CG        -5.3490   64.6380   69.0500 C.ar   67  TYR67      -0.0201
      7  CD1       -5.9380   63.9580   70.1200 C.ar   67  TYR67      -0.0009
      8  CD2       -4.2410   65.4330   69.3030 C.ar   67  TYR67      -0.0009
      9  CE1       -5.4320   64.0780   71.3950 C.ar   67  TYR67       0.0417
     10  CE2       -3.7310   65.5640   70.5830 C.ar   67  TYR67       0.0417
     11  CZ        -4.3220   64.8890   71.6120 C.ar   67  TYR67       0.1957
     12  OH        -3.7950   64.9870   72.8720 O.3    67  TYR67      -0.2866
     13  N         -4.0600   69.3620   69.9360 N.3    69  ASP69      -0.1239
     14  CA        -3.1060   69.3270   71.0450 C.3    69  ASP69       0.1674
     15  C         -3.3190   70.4110   72.0690 C.2    69  ASP69       0.2266
     16  O         -3.3350   71.5790   71.7220 O.2    69  ASP69      -0.2867
     17  CB        -1.6930   69.3900   70.4950 C.3    69  ASP69       0.1410
     18  CG        -0.6650   69.7140   71.5450 C.2    69  ASP69       0.3668
     19  OD1       -0.7410   69.1860   72.6480 O.co2  69  ASP69      -0.2456
     20  OD2        0.2510   70.4980   71.2670 O.co2  69  ASP69      -0.2456
     21  N         -1.5540   70.0570   75.1930 N.3    71  GLN71      -0.1245
     22  CA        -0.5410   69.8020   76.1820 C.3    71  GLN71       0.1566
     23  C         -0.0900   71.1000   76.7810 C.2    71  GLN71       0.2260
     24  O          0.0940   71.1770   77.9630 O.2    71  GLN71      -0.2867
     25  CB         0.6560   69.1260   75.5490 C.3    71  GLN71       0.0367
     26  CG         0.7330   67.6990   75.9260 C.3    71  GLN71       0.0905
     27  CD         0.7480   67.5810   77.3950 C.2    71  GLN71       0.2608
     28  OE1        1.5250   68.2710   78.0470 O.2    71  GLN71      -0.2717
     29  NE2       -0.1110   66.7280   77.9500 N.am   71  GLN71      -0.0878
     30  N          3.1280   75.3590   70.3690 N.3    78  SER78      -0.1217
     31  CA         2.3190   74.2290   69.9760 C.3    78  SER78       0.1889
     32  C          1.0080   74.6430   69.3280 C.2    78  SER78       0.2288
     33  O          0.4440   73.8930   68.5130 O.2    78  SER78      -0.2866
     34  CB         2.0370   73.3210   71.1750 C.3    78  SER78       0.2089
     35  OG         1.4880   74.0600   72.2400 O.3    78  SER78      -0.2183
     36  N          0.3980   74.7770   65.4530 N.3    81  TRP81      -0.1227
     37  CA         0.1510   73.5640   64.6960 C.3    81  TRP81       0.1737
     38  C         -1.3100   73.1560   64.7240 C.2    81  TRP81       0.2595
     39  O         -1.7730   72.4750   63.8340 O.2    81  TRP81      -0.2718
     40  CB         1.0290   72.4140   65.2170 C.3    81  TRP81       0.0564
     41  CG         2.4780   72.7360   65.2180 C.ar   81  TRP81       0.0003
     42  CD1        3.2370   73.1300   66.2930 C.ar   81  TRP81       0.0946
     43  CD2        3.3540   72.7300   64.0910 C.ar   81  TRP81       0.0152
     44  NE1        4.5390   73.3650   65.9000 N.ar   81  TRP81      -0.2442
     45  CE2        4.6360   73.1360   64.5520 C.ar   81  TRP81       0.0810
     46  CE3        3.1840   72.4240   62.7290 C.ar   81  TRP81       0.0012
     47  CZ2        5.7350   73.2480   63.7020 C.ar   81  TRP81       0.0191
     48  CZ3        4.2780   72.5350   61.8880 C.ar   81  TRP81       0.0001
     49  CH2        5.5420   72.9460   62.3760 C.ar   81  TRP81       0.0015
     50  N         -2.0300   73.5860   65.7460 N.am   82  ASN82      -0.1974
     51  CA        -3.4440   73.2470   65.9000 C.3    82  ASN82       0.1688
     52  C         -4.3040   73.8600   64.8010 C.2    82  ASN82       0.2292
     53  O         -3.9210   74.8010   64.1500 O.2    82  ASN82      -0.2864
     54  CB        -3.9700   73.7250   67.2570 C.3    82  ASN82       0.1181
     55  CG        -3.6110   72.8030   68.4290 C.2    82  ASN82       0.2629
     56  OD1       -3.7330   71.5770   68.3650 O.2    82  ASN82      -0.2716
     57  ND2       -3.2080   73.4140   69.5340 N.am   82  ASN82      -0.0877
     58  N          1.7870   67.7800   57.2760 N.3   114  GLY114     -0.1210
     59  CA         2.0840   66.5950   58.0430 C.3   114  GLY114      0.1956
     60  C          1.3040   66.6430   59.3350 C.2   114  GLY114      0.2612
     61  O          0.3570   67.4040   59.4600 O.2   114  GLY114     -0.2717
     62  N          1.6980   65.8460   60.3100 N.am  115  GLY115     -0.1956
     63  CA         0.9570   65.8140   61.5440 C.3   115  GLY115      0.1869
     64  C          0.7370   64.3660   61.9190 C.2   115  GLY115      0.2309
     65  O         -0.2990   64.0080   62.4830 O.2   115  GLY115     -0.2863
     66  N         -2.5070   62.0960   62.1770 N.3   118  TYR118     -0.1227
     67  CA        -3.5680   62.3000   63.1600 C.3   118  TYR118      0.1736
     68  C         -3.9310   63.8050   63.2700 C.2   118  TYR118      0.2596
     69  O         -4.9120   64.1770   63.9160 O.2   118  TYR118     -0.2718
     70  CB        -3.1500   61.7710   64.5470 C.3   118  TYR118      0.0548
     71  CG        -1.8700   62.3760   65.1060 C.ar  118  TYR118     -0.0200
     72  CD1       -1.8410   63.6780   65.6320 C.ar  118  TYR118     -0.0009
     73  CD2       -0.6790   61.6460   65.0910 C.ar  118  TYR118     -0.0009
     74  CE1       -0.6530   64.2350   66.1300 C.ar  118  TYR118      0.0417
     75  CE2        0.5220   62.1860   65.5840 C.ar  118  TYR118      0.0417
     76  CZ         0.5340   63.4830   66.1050 C.ar  118  TYR118      0.1957
     77  OH         1.7350   63.9770   66.6000 O.3   118  TYR118     -0.2866
     78  N         -3.1390   64.6750   62.6470 N.am  119  SER119     -0.1952
     79  CA        -3.4070   66.1010   62.7600 C.3   119  SER119      0.1924
     80  C         -2.9120   66.8350   61.5440 C.2   119  SER119      0.2314
     81  O         -2.2020   66.2470   60.7250 O.2   119  SER119     -0.2863
     82  CB        -2.6960   66.6720   63.9870 C.3   119  SER119      0.2116
     83  OG        -1.4310   67.2310   63.6710 O.3   119  SER119     -0.2180
     84  N          1.9540   77.8000   56.9880 N.3   127  TYR127     -0.1241
     85  CA         1.8100   77.3020   55.6350 C.3   127  TYR127      0.1605
     86  C          1.3060   78.3530   54.6670 C.2   127  TYR127      0.2264
     87  O          0.8270   78.0090   53.5830 O.2   127  TYR127     -0.2867
     88  CB         0.8940   76.0650   55.5610 C.3   127  TYR127      0.0534
     89  CG         1.2970   74.9340   56.4590 C.ar  127  TYR127     -0.0201
     90  CD1        2.6070   74.7890   56.8860 C.ar  127  TYR127     -0.0009
     91  CD2        0.3730   73.9840   56.8630 C.ar  127  TYR127     -0.0009
     92  CE1        2.9770   73.7250   57.6940 C.ar  127  TYR127      0.0417
     93  CE2        0.7420   72.9150   57.6710 C.ar  127  TYR127      0.0417
     94  CZ         2.0410   72.8010   58.0790 C.ar  127  TYR127      0.1957
     95  OH         2.4110   71.7710   58.9130 O.3   127  TYR127     -0.2866
     96  N          6.2090   67.6760   54.7240 N.3   196  GLU196     -0.1231
     97  CA         7.0660   67.4270   55.8830 C.3   196  GLU196      0.1699
     98  C          6.2880   66.5050   56.8290 C.2   196  GLU196      0.2592
     99  O          5.0430   66.5490   56.8280 O.2   196  GLU196     -0.2718
    100  CB         7.4050   68.7770   56.5500 C.3   196  GLU196      0.0402
    101  CG         8.2350   68.7540   57.8430 C.3   196  GLU196      0.1161
    102  CD         7.3800   68.5530   59.0680 C.2   196  GLU196      0.3649
    103  OE1        6.1470   68.5740   58.9210 O.co2 196  GLU196     -0.2457
    104  OE2        7.9050   68.3720   60.1800 O.co2 196  GLU196     -0.2457
    105  N          7.0070   65.6630   57.6050 N.am  197  SER197     -0.1952
    106  CA         6.3510   64.7490   58.5500 C.3   197  SER197      0.1924
    107  C          5.5290   63.7800   57.6960 C.2   197  SER197      0.2314
    108  O          6.0350   63.2830   56.6910 O.2   197  SER197     -0.2863
    109  CB         5.4430   65.5500   59.5010 C.3   197  SER197      0.2116
    110  OG         4.8020   64.7580   60.5190 O.3   197  SER197     -0.2180
    111  N         -6.7060   57.2380   70.3370 N.3   276  TRP276     -0.1241
    112  CA        -5.3250   56.9050   70.7260 C.3   276  TRP276      0.1605
    113  C         -5.3520   55.6540   71.6200 C.2   276  TRP276      0.2264
    114  O         -4.3220   55.1200   72.0470 O.2   276  TRP276     -0.2867
    115  CB        -4.6560   58.0680   71.4960 C.3   276  TRP276      0.0550
    116  CG        -4.1930   59.2480   70.6700 C.ar  276  TRP276      0.0003
    117  CD1       -4.8780   60.4220   70.4240 C.ar  276  TRP276      0.0946
    118  CD2       -2.9290   59.3890   70.0180 C.ar  276  TRP276      0.0152
    119  NE1       -4.1050   61.2800   69.6590 N.ar  276  TRP276     -0.2442
    120  CE2       -2.9110   60.6710   69.3940 C.ar  276  TRP276      0.0810
    121  CE3       -1.8000   58.5620   69.9020 C.ar  276  TRP276      0.0012
    122  CZ2       -1.8220   61.1310   68.6720 C.ar  276  TRP276      0.0191
    123  CZ3       -0.7040   59.0250   69.1810 C.ar  276  TRP276      0.0001
    124  CH2       -0.7250   60.3040   68.5710 C.ar  276  TRP276      0.0015
    125  N          4.6950   53.5830   71.0640 N.3   284  ILE284     -0.1231
    126  CA         4.6900   54.8730   71.7550 C.3   284  ILE284      0.1692
    127  C          4.9310   56.1210   70.8780 C.2   284  ILE284      0.2592
    128  O          4.5060   57.2220   71.2290 O.2   284  ILE284     -0.2718
    129  CB         5.7500   54.8340   72.8710 C.3   284  ILE284      0.0266
    130  CG1        5.8840   56.1940   73.5480 C.3   284  ILE284      0.0019
    131  CG2        7.0870   54.3820   72.2720 C.3   284  ILE284      0.0020
    132  CD1        7.2010   56.3460   74.2790 C.3   284  ILE284      0.0001
    133  N          5.6040   55.9610   69.7440 N.am  285  PHE285     -0.1962
    134  CA         5.8650   57.1120   68.9070 C.3   285  PHE285      0.1771
    135  C          5.1260   57.0350   67.6090 C.2   285  PHE285      0.2619
    136  O          5.5050   57.6710   66.6390 O.2   285  PHE285     -0.2715
    137  CB         7.3670   57.2380   68.6470 C.3   285  PHE285      0.0574
    138  CG         8.1510   57.5240   69.8810 C.ar  285  PHE285     -0.0200
    139  CD1        9.2090   56.7010   70.2620 C.ar  285  PHE285     -0.0042
    140  CD2        7.7930   58.5910   70.7060 C.ar  285  PHE285     -0.0042
    141  CE1        9.8980   56.9320   71.4470 C.ar  285  PHE285     -0.0003
    142  CE2        8.4690   58.8310   71.8870 C.ar  285  PHE285     -0.0003
    143  CZ         9.5290   57.9960   72.2600 C.ar  285  PHE285     -0.0000
    144  N          4.0530   56.2700   67.5790 N.am  286  ARG286     -0.1977
    145  CA         3.3200   56.1280   66.3340 C.3   286  ARG286      0.1597
    146  C          1.8760   56.5700   66.5480 C.2   286  ARG286      0.2287
    147  O          1.5120   56.9440   67.6460 O.2   286  ARG286     -0.2864
    148  CB         3.4030   54.6520   65.8910 C.3   286  ARG286      0.0334
    149  CG         4.8210   54.0620   65.9620 C.3   286  ARG286      0.0492
    150  CD         4.9640   52.6080   65.4230 C.3   286  ARG286      0.2205
    151  NE         6.3770   52.1710   65.4420 N.pl3 286  ARG286     -0.0865
    152  CZ         6.8310   50.9920   65.0090 C.cat 286  ARG286      0.5346
    153  NH1        5.9920   50.0990   64.5090 N.pl3 286  ARG286      0.1354
    154  NH2        8.1330   50.6980   65.0730 N.pl3 286  ARG286      0.1354
    155  N         10.8610   66.4380   69.6450 N.3   327  PHE327     -0.1227
    156  CA         9.4060   66.5380   69.6890 C.3   327  PHE327      0.1736
    157  C          8.8030   65.2330   70.2320 C.2   327  PHE327      0.2595
    158  O          8.0550   65.2170   71.2020 O.2   327  PHE327     -0.2718
    159  CB         8.9150   66.8790   68.2860 C.3   327  PHE327      0.0547
    160  CG         7.4780   66.5800   68.0370 C.ar  327  PHE327     -0.0202
    161  CD1        7.1180   65.5730   67.1430 C.ar  327  PHE327     -0.0042
    162  CD2        6.4790   67.2870   68.6890 C.ar  327  PHE327     -0.0042
    163  CE1        5.7960   65.2740   66.9040 C.ar  327  PHE327     -0.0003
    164  CE2        5.1310   66.9900   68.4550 C.ar  327  PHE327     -0.0003
    165  CZ         4.7970   65.9830   67.5620 C.ar  327  PHE327     -0.0000
    166  N          9.1900   64.1220   69.6440 N.am  328  PHE328     -0.1976
    167  CA         8.6570   62.8440   70.0590 C.3   328  PHE328      0.1639
    168  C          8.8990   62.5460   71.5330 C.2   328  PHE328      0.2290
    169  O          8.0350   61.9820   72.2140 O.2   328  PHE328     -0.2864
    170  CB         9.2360   61.7210   69.1750 C.3   328  PHE328      0.0560
    171  CG         9.0340   61.9420   67.6960 C.ar  328  PHE328     -0.0200
    172  CD1        9.9210   62.7270   66.9680 C.ar  328  PHE328     -0.0042
    173  CD2        7.9480   61.3660   67.0290 C.ar  328  PHE328     -0.0042
    174  CE1        9.7410   62.9350   65.6010 C.ar  328  PHE328     -0.0003
    175  CE2        7.7570   61.5720   65.6430 C.ar  328  PHE328     -0.0003
    176  CZ         8.6520   62.3530   64.9310 C.ar  328  PHE328     -0.0000
    177  N          6.6100   64.8950   73.7540 N.3   331  TYR331     -0.1227
    178  CA         5.2450   64.4120   73.8910 C.3   331  TYR331      0.1736
    179  C          5.0460   62.9780   74.2890 C.2   331  TYR331      0.2596
    180  O          3.9160   62.6130   74.5450 O.2   331  TYR331     -0.2718
    181  CB         4.4310   64.6460   72.6170 C.3   331  TYR331      0.0548
    182  CG         4.0140   66.0760   72.4450 C.ar  331  TYR331     -0.0200
    183  CD1        4.9210   67.0250   71.9670 C.ar  331  TYR331     -0.0009
    184  CD2        2.7040   66.4900   72.7290 C.ar  331  TYR331     -0.0009
    185  CE1        4.5400   68.3420   71.7540 C.ar  331  TYR331      0.0417
    186  CE2        2.3050   67.8240   72.5210 C.ar  331  TYR331      0.0417
    187  CZ         3.2350   68.7350   72.0220 C.ar  331  TYR331      0.1957
    188  OH         2.8770   70.0110   71.7040 O.3   331  TYR331     -0.2866
    189  N          6.1010   62.1630   74.3510 N.am  332  GLY332     -0.1957
    190  CA         5.8920   60.7560   74.6790 C.3   332  GLY332      0.1869
    191  C          6.8420   59.9390   75.5490 C.2   332  GLY332      0.2309
    192  O          6.6650   58.7330   75.7050 O.2   332  GLY332     -0.2863
    193  N         10.5600   77.2230   72.0710 N.3   429  TRP429     -0.1241
    194  CA        10.8060   75.9540   72.7880 C.3   429  TRP429      0.1605
    195  C         12.1700   75.9920   73.4950 C.2   429  TRP429      0.2264
    196  O         13.0510   76.7630   73.1430 O.2   429  TRP429     -0.2867
    197  CB        10.7660   74.7290   71.8530 C.3   429  TRP429      0.0550
    198  CG         9.4440   74.5170   71.1790 C.ar  429  TRP429      0.0003
    199  CD1        9.0840   74.9520   69.9410 C.ar  429  TRP429      0.0946
    200  CD2        8.2850   73.8800   71.7340 C.ar  429  TRP429      0.0152
    201  NE1        7.7690   74.6350   69.6920 N.ar  429  TRP429     -0.2442
    202  CE2        7.2570   73.9740   70.7770 C.ar  429  TRP429      0.0810
    203  CE3        8.0170   73.2440   72.9510 C.ar  429  TRP429      0.0012
    204  CZ2        5.9780   73.4570   70.9940 C.ar  429  TRP429      0.0191
    205  CZ3        6.7260   72.7250   73.1820 C.ar  429  TRP429      0.0001
    206  CH2        5.7310   72.8400   72.2040 C.ar  429  TRP429      0.0015
    207  N         15.7490   71.0930   73.1080 N.3   433  MET433     -0.1245
    208  CA        15.0070   70.5870   71.9720 C.3   433  MET433      0.1570
    209  C         15.7590   70.7990   70.6620 C.2   433  MET433      0.2261
    210  O         15.5010   70.1040   69.6830 O.2   433  MET433     -0.2867
    211  CB        13.6020   71.1820   71.9470 C.3   433  MET433      0.0387
    212  CG        12.7010   70.5260   72.9590 C.3   433  MET433      0.0595
    213  SD        10.9250   70.8910   72.8010 S.3   433  MET433     -0.1393
    214  CE        10.3930   69.5760   71.7640 C.3   433  MET433      0.0692
    215  N         14.2290   71.4920   65.9630 N.3   436  ILE436     -0.1231
    216  CA        13.0320   70.6980   66.0230 C.3   436  ILE436      0.1692
    217  C         12.3400   70.2600   64.7490 C.2   436  ILE436      0.2592
    218  O         12.3810   70.9400   63.7230 O.2   436  ILE436     -0.2718
    219  CB        12.0510   71.4260   66.9040 C.3   436  ILE436      0.0266
    220  CG1       12.7530   71.7100   68.2380 C.3   436  ILE436      0.0019
    221  CG2       10.7430   70.6360   67.0190 C.3   436  ILE436      0.0020
    222  CD1       12.1230   72.7550   69.1020 C.3   436  ILE436      0.0001
    223  N         11.7470   69.0690   64.8490 N.am  437  HIS437     -0.1962
    224  CA        10.9700   68.4260   63.8040 C.3   437  HIS437      0.1787
    225  C          9.8470   69.3990   63.5130 C.2   437  HIS437      0.2621
    226  O          9.0260   69.6830   64.3930 O.2   437  HIS437     -0.2715
    227  CB        10.4130   67.1360   64.3780 C.3   437  HIS437      0.0785
    228  CG         9.4390   66.4150   63.5000 C.ar  437  HIS437      0.0821
    229  ND1        9.8170   65.7590   62.3500 N.ar  437  HIS437     -0.2267
    230  CD2        8.1180   66.1500   63.6760 C.ar  437  HIS437      0.1154
    231  CE1        8.7700   65.1140   61.8620 C.ar  437  HIS437      0.1986
    232  NE2        7.7270   65.3330   62.6490 N.ar  437  HIS437     -0.2212
    233  N          9.8320   69.9170   62.2920 N.am  438  GLY438     -0.1940
    234  CA         8.8170   70.8620   61.9000 C.3   438  GLY438      0.2014
    235  C          9.3960   72.2590   61.7330 C.2   438  GLY438      0.2638
    236  O          8.8550   73.1000   61.0220 O.2   438  GLY438     -0.2714
    237  N         10.5420   72.5150   62.3350 N.am  439  TYR439     -0.1973
    238  CA        11.0470   73.8690   62.2490 C.3   439  TYR439      0.1639
    239  C         11.8720   74.3950   61.0870 C.2   439  TYR439      0.2290
    240  O         12.4160   75.4910   61.1650 O.2   439  TYR439     -0.2864
    241  CB        11.6620   74.2410   63.5850 C.3   439  TYR439      0.0560
    242  CG        10.5610   74.4720   64.5810 C.ar  439  TYR439     -0.0198
    243  CD1        9.9660   73.3990   65.2420 C.ar  439  TYR439     -0.0009
    244  CD2        9.9850   75.7510   64.7240 C.ar  439  TYR439     -0.0009
    245  CE1        8.8300   73.5740   65.9930 C.ar  439  TYR439      0.0417
    246  CE2        8.8440   75.9400   65.4740 C.ar  439  TYR439      0.0417
    247  CZ         8.2700   74.8470   66.0940 C.ar  439  TYR439      0.1957
    248  OH         7.0930   75.0090   66.7600 O.3   439  TYR439     -0.2866
@<TRIPOS>BOND
     1    87    86    2
     2    86    85    1
     3    96    97    1
     4    88    85    1
     5    88    89    1
     6    85    84    1
     7    97   100    1
     8    97    98    1
     9    89    91   ar
    10    89    90   ar
    11   100   101    1
    12   108   107    2
    13    99    98    2
    14    98   105   am
    15    91    93   ar
    16    90    92   ar
    17    58    59    1
    18   105   106    1
    19    93    94   ar
    20    92    94   ar
    21   107   106    1
    22   101   102    1
    23    59    60    1
    24    94    95    1
    25   106   109    1
    26   103   102   ar
    27   102   104   ar
    28    60    61    2
    29    60    62   am
    30   109   110    1
    31    62    63    1
    32    81    80    2
    33   236   235    2
    34   239   240    2
    35   239   238    1
    36    80    79    1
    37    63    64    1
    38   235   234    1
    39   235   237   am
    40   231   229   ar
    41   231   232   ar
    42    48    49   ar
    43    48    46   ar
    44   234   233    1
    45    64    65    2
    46    66    67    1
    47   238   237    1
    48   238   241    1
    49   233   225   am
    50   229   228   ar
    51    49    47   ar
    52    78    79    1
    53    78    68   am
    54   232   230   ar
    55    46    43   ar
    56    79    82    1
    57    67    68    1
    58    67    70    1
    59    68    69    2
    60   228   230   ar
    61   228   227    1
    62   225   224    1
    63   225   226    2
    64   241   242    1
    65    83    82    1
    66    47    45   ar
    67   218   217    2
    68   224   227    1
    69   224   223    1
    70    39    38    2
    71    43    45   ar
    72    43    41   ar
    73    53    52    2
    74   153   152    1
    75    70    71    1
    76    45    44   ar
    77   242   244   ar
    78   242   243   ar
    79    37    38    1
    80    37    40    1
    81    37    36    1
    82    38    50   am
    83   244   246   ar
    84   217   223   am
    85   217   216    1
    86    52    51    1
    87   176   174   ar
    88   176   175   ar
    89   152   154    1
    90   152   151    2
    91    73    71   ar
    92    73    75   ar
    93    71    72   ar
    94    40    41    1
    95    41    42   ar
    96   243   245   ar
    97   150   151    1
    98   150   149    1
    99   246   247   ar
   100    75    76   ar
   101   174   172   ar
   102    72    74   ar
   103   175   173   ar
   104    50    51    1
   105   148   149    1
   106   148   145    1
   107    44    42   ar
   108    51    54    1
   109   215   216    1
   110   245   247   ar
   111   216   219    1
   112   247   248    1
   113     1     2    1
   114    76    74   ar
   115    76    77    1
   116   145   146    1
   117   145   144    1
   118   146   147    2
   119   136   135    2
   120     4     3    2
   121   219   221    1
   122   219   220    1
   123   163   161   ar
   124   163   165   ar
   125   172   171   ar
   126   173   171   ar
   127   161   160   ar
   128    54    55    1
   129     2     3    1
   130     2     5    1
   131   165   164   ar
   132   144   135   am
   133   135   134    1
   134     5     6    1
   135   171   170    1
   136   160   159    1
   137   160   162   ar
   138   220   222    1
   139   159   156    1
   140    56    55    2
   141    55    57   am
   142   164   162   ar
   143    33    32    2
   144   124   122   ar
   145   124   123   ar
   146   137   134    1
   147   137   138    1
   148   122   120   ar
   149   134   133    1
   150     6     8   ar
   151     6     7   ar
   152   170   167    1
   153   123   121   ar
   154     8    10   ar
   155    32    31    1
   156   120   119   ar
   157   120   118   ar
   158   166   167    1
   159   166   157   am
   160   155   156    1
   161   119   117   ar
   162   210   209    2
   163   156   157    1
   164   201   199   ar
   165   201   202   ar
   166   133   127   am
   167   138   139   ar
   168   138   140   ar
   169   121   118   ar
   170    13    14    1
   171   199   198   ar
   172    31    30    1
   173    31    34    1
   174   118   116   ar
   175   167   168    1
   176     7     9   ar
   177   157   158    2
   178   139   141   ar
   179   111   112    1
   180   117   116   ar
   181    17    14    1
   182    17    18    1
   183    10    11   ar
   184   209   208    1
   185   116   115    1
   186   140   142   ar
   187   112   115    1
   188   112   113    1
   189   202   204   ar
   190   202   200   ar
   191   127   128    2
   192   127   126    1
   193   204   206   ar
   194    14    15    1
   195   125   126    1
   196    34    35    1
   197   198   200   ar
   198   198   197    1
   199    20    18   ar
   200     9    11   ar
   201   141   143   ar
   202   168   169    2
   203    18    19   ar
   204    11    12    1
   205   113   114    2
   206   188   187    1
   207    16    15    2
   208   200   203   ar
   209   185   183   ar
   210   185   187   ar
   211   126   129    1
   212   214   213    1
   213   197   194    1
   214   142   143   ar
   215   211   208    1
   216   211   212    1
   217   183   182   ar
   218   208   207    1
   219   187   186   ar
   220   193   194    1
   221   206   205   ar
   222   131   129    1
   223   182   181    1
   224   182   184   ar
   225   186   184   ar
   226   181   178    1
   227   194   195    1
   228   213   212    1
   229   129   130    1
   230   203   205   ar
   231   196   195    2
   232   130   132    1
   233   177   178    1
   234   178   179    1
   235   179   189   am
   236   179   180    2
   237   189   190    1
   238   190   191    1
   239    21    22    1
   240   191   192    2
   241    25    26    1
   242    25    22    1
   243    26    27    1
   244    22    23    1
   245    23    24    2
   246    27    29   am
   247    27    28    2
