@<TRIPOS>MOLECULE
tmp/2cmkA00.pdb
 178 165 0 0 0
SMALL
GASTEIGER

@<TRIPOS>ATOM
      1  N         66.2190   52.5410   22.9410 N.3    12  SER12      -0.1202
      2  CA        66.1210   53.1860   24.2400 C.3    12  SER12       0.2020
      3  C         67.4380   53.1380   25.0010 C.2    12  SER12       0.2619
      4  O         68.0700   52.0850   25.0830 O.2    12  SER12      -0.2717
      5  CB        65.0360   52.4910   25.0610 C.3    12  SER12       0.2103
      6  OG        64.8590   53.1310   26.3100 O.3    12  SER12      -0.2182
      7  N         67.8690   54.2900   25.5040 N.am   13  GLY13      -0.1956
      8  CA        69.0940   54.3700   26.2870 C.3    13  GLY13       0.1869
      9  C         70.3960   54.3870   25.5070 C.2    13  GLY13       0.2309
     10  O         71.4830   54.1820   26.0770 O.2    13  GLY13      -0.2863
     11  N         70.6760   59.1300   22.5520 N.3    16  LYS16      -0.1245
     12  CA        70.1080   60.0670   21.5960 C.3    16  LYS16       0.1561
     13  C         69.8130   61.4420   22.1940 C.2    16  LYS16       0.2260
     14  O         70.1440   62.4690   21.5890 O.2    16  LYS16      -0.2867
     15  CB        68.8190   59.4990   21.0100 C.3    16  LYS16       0.0271
     16  CG        68.9580   58.1440   20.3340 C.3    16  LYS16       0.0035
     17  CD        67.6660   57.8050   19.6010 C.3    16  LYS16       0.0206
     18  CE        66.4670   57.6900   20.5360 C.3    16  LYS16       0.1093
     19  NZ        66.6490   56.6120   21.5620 N.3    16  LYS16      -0.1314
     20  N         62.0660   66.2540   19.8110 N.3    33  ASP33      -0.1225
     21  CA        62.1510   65.0310   20.5800 C.3    33  ASP33       0.1805
     22  C         60.8230   64.3490   20.2430 C.2    33  ASP33       0.2598
     23  O         59.7840   64.6830   20.8030 O.2    33  ASP33      -0.2718
     24  CB        62.2670   65.3470   22.0730 C.3    33  ASP33       0.1424
     25  CG        62.3640   64.1020   22.9270 C.2    33  ASP33       0.3668
     26  OD1       61.9030   63.0270   22.5090 O.co2  33  ASP33      -0.2456
     27  OD2       62.8640   64.1900   24.0580 O.co2  33  ASP33      -0.2456
     28  N         60.8360   63.4420   19.2740 N.am   34  SER34      -0.1938
     29  CA        59.6050   62.7760   18.8790 C.3    34  SER34       0.2055
     30  C         59.0180   61.8570   19.9620 C.2    34  SER34       0.2644
     31  O         57.8090   61.6600   20.0180 O.2    34  SER34      -0.2714
     32  CB        59.8080   62.0130   17.5630 C.3    34  SER34       0.2130
     33  OG        60.3860   60.7250   17.7560 O.3    34  SER34      -0.2179
     34  N         59.8680   61.2930   20.8180 N.am   35  GLY35      -0.1939
     35  CA        59.3880   60.4270   21.8820 C.3    35  GLY35       0.2014
     36  C         58.4930   61.1870   22.8450 C.2    35  GLY35       0.2638
     37  O         57.5080   60.6510   23.3450 O.2    35  GLY35      -0.2714
     38  N         58.8090   62.4510   23.0850 N.am   36  ALA36      -0.1977
     39  CA        58.0120   63.2470   24.0010 C.3    36  ALA36       0.1597
     40  C         56.6130   63.4110   23.4670 C.2    36  ALA36       0.2287
     41  O         55.6860   63.5790   24.2460 O.2    36  ALA36      -0.2864
     42  CB        58.6430   64.6030   24.2470 C.3    36  ALA36       0.0319
     43  N         54.7290   61.0920   21.7230 N.3    38  TYR38      -0.1227
     44  CA        53.9720   59.8850   22.0340 C.3    38  TYR38       0.1736
     45  C         53.7190   59.8310   23.5460 C.2    38  TYR38       0.2595
     46  O         52.6930   59.3310   23.9810 O.2    38  TYR38      -0.2718
     47  CB        54.7310   58.6360   21.5650 C.3    38  TYR38       0.0548
     48  CG        54.8100   58.5270   20.0610 C.ar   38  TYR38      -0.0200
     49  CD1       55.8480   59.1280   19.3550 C.ar   38  TYR38      -0.0009
     50  CD2       53.8070   57.8750   19.3390 C.ar   38  TYR38      -0.0009
     51  CE1       55.8840   59.0950   17.9640 C.ar   38  TYR38       0.0417
     52  CE2       53.8290   57.8310   17.9430 C.ar   38  TYR38       0.0417
     53  CZ        54.8710   58.4440   17.2630 C.ar   38  TYR38       0.1957
     54  OH        54.9000   58.4140   15.8860 O.3    38  TYR38      -0.2866
     55  N         54.6720   60.3260   24.3370 N.am   39  ARG39      -0.1980
     56  CA        54.5340   60.3750   25.7990 C.3    39  ARG39       0.1597
     57  C         53.4130   61.3520   26.1980 C.2    39  ARG39       0.2287
     58  O         52.5820   60.9850   27.0170 O.2    39  ARG39      -0.2864
     59  CB        55.8670   60.7460   26.4750 C.3    39  ARG39       0.0334
     60  CG        56.9100   59.6180   26.4880 C.3    39  ARG39       0.0492
     61  CD        58.2810   60.1120   26.9260 C.3    39  ARG39       0.2205
     62  NE        59.2690   59.0310   26.9420 N.pl3  39  ARG39      -0.0865
     63  CZ        59.6050   58.3160   28.0180 C.cat  39  ARG39       0.5346
     64  NH1       59.0460   58.5550   29.1990 N.pl3  39  ARG39       0.1354
     65  NH2       60.5070   57.3470   27.9180 N.pl3  39  ARG39       0.1354
     66  N         57.9770   61.7130   32.0190 N.3    90  ARG90      -0.1245
     67  CA        59.1400   60.8520   32.2200 C.3    90  ARG90       0.1563
     68  C         58.9030   59.7370   33.2530 C.2    90  ARG90       0.2260
     69  O         59.8210   59.0250   33.6180 O.2    90  ARG90      -0.2867
     70  CB        60.3760   61.6970   32.5850 C.3    90  ARG90       0.0307
     71  CG        60.7120   62.8250   31.5750 C.3    90  ARG90       0.0489
     72  CD        61.0020   62.2960   30.1300 C.3    90  ARG90       0.2205
     73  NE        61.2410   63.3730   29.1510 N.pl3  90  ARG90      -0.0865
     74  CZ        61.3370   63.2140   27.8260 C.cat  90  ARG90       0.5346
     75  NH1       61.2190   62.0070   27.2820 N.pl3  90  ARG90       0.1354
     76  NH2       61.5260   64.2770   27.0400 N.pl3  90  ARG90       0.1354
     77  N         55.6500   56.1050   30.1640 N.3    95  ALA95      -0.1245
     78  CA        56.4900   55.4340   29.1800 C.3    95  ALA95       0.1562
     79  C         55.8920   54.1010   28.7530 C.2    95  ALA95       0.2260
     80  O         56.0090   53.6970   27.5940 O.2    95  ALA95      -0.2867
     81  CB        57.8720   55.2440   29.7100 C.3    95  ALA95       0.0290
     82  N         52.8970   54.8000   26.5230 N.3    98  ALA98      -0.1231
     83  CA        53.4270   55.3560   25.2880 C.3    98  ALA98       0.1694
     84  C         53.7740   54.2920   24.2500 C.2    98  ALA98       0.2592
     85  O         53.5710   54.5150   23.0510 O.2    98  ALA98      -0.2718
     86  CB        54.6400   56.2180   25.5780 C.3    98  ALA98       0.0304
     87  N         54.2900   53.1430   24.6940 N.am   99  SER99      -0.1952
     88  CA        54.6420   52.0740   23.7540 C.3    99  SER99       0.1924
     89  C         53.4010   51.4380   23.1450 C.2    99  SER99       0.2314
     90  O         53.4310   50.9680   22.0140 O.2    99  SER99      -0.2863
     91  CB        55.5400   51.0040   24.4010 C.3    99  SER99       0.2116
     92  OG        54.9410   50.4160   25.5430 O.3    99  SER99      -0.2180
     93  N         51.8560   54.0640   20.5870 N.3   102  ALA102     -0.1245
     94  CA        52.7390   54.1850   19.4310 C.3   102  ALA102      0.1562
     95  C         52.5760   53.0650   18.4170 C.2   102  ALA102      0.2260
     96  O         52.9710   53.2060   17.2580 O.2   102  ALA102     -0.2867
     97  CB        54.2030   54.2500   19.8990 C.3   102  ALA102      0.0290
     98  N         49.6650   56.9140   14.5520 N.3   108  ARG108     -0.1245
     99  CA        50.9100   57.4460   14.0000 C.3   108  ARG108      0.1563
    100  C         50.6410   58.4490   12.8660 C.2   108  ARG108      0.2260
    101  O         51.2800   59.4960   12.8100 O.2   108  ARG108     -0.2867
    102  CB        51.8260   56.3220   13.5050 C.3   108  ARG108      0.0307
    103  CG        52.2280   55.3200   14.5710 C.3   108  ARG108      0.0489
    104  CD        53.4490   54.4760   14.1550 C.3   108  ARG108      0.2205
    105  NE        54.6960   55.2520   14.0820 N.pl3 108  ARG108     -0.0865
    106  CZ        55.6100   55.3320   15.0500 C.cat 108  ARG108      0.5346
    107  NH1       55.4350   54.6900   16.2030 N.pl3 108  ARG108      0.1354
    108  NH2       56.7210   56.0320   14.8580 N.pl3 108  ARG108      0.1354
    109  N         54.7140   66.5720   13.5990 N.3   115  GLN115     -0.1245
    110  CA        56.1660   66.3760   13.6360 C.3   115  GLN115      0.1566
    111  C         56.8980   67.0850   12.5080 C.2   115  GLN115      0.2260
    112  O         57.9220   67.7250   12.7420 O.2   115  GLN115     -0.2867
    113  CB        56.5100   64.8850   13.5880 C.3   115  GLN115      0.0367
    114  CG        56.0960   64.1220   14.8250 C.3   115  GLN115      0.0905
    115  CD        56.1500   62.6350   14.6210 C.2   115  GLN115      0.2608
    116  OE1       57.2010   62.0090   14.7630 O.2   115  GLN115     -0.2717
    117  NE2       55.0120   62.0530   14.2890 N.am  115  GLN115     -0.0878
    118  N         64.3660   60.1950   17.3830 N.3   128  GLY128     -0.1210
    119  CA        63.2670   59.2490   17.3540 C.3   128  GLY128      0.1956
    120  C         63.6040   57.8000   17.0700 C.2   128  GLY128      0.2612
    121  O         64.6540   57.2950   17.4580 O.2   128  GLY128     -0.2717
    122  N         62.6190   57.0840   16.5420 N.am  129  ARG129     -0.1965
    123  CA        62.7820   55.6790   16.1670 C.3   129  ARG129      0.1729
    124  C         62.6820   55.5700   14.6310 C.2   129  ARG129      0.2616
    125  O         63.4090   54.8010   14.0140 O.2   129  ARG129     -0.2715
    126  CB        61.6730   54.7940   16.7730 C.3   129  ARG129      0.0348
    127  CG        61.6490   54.6460   18.2950 C.3   129  ARG129      0.0492
    128  CD        62.9070   53.9660   18.8520 C.3   129  ARG129      0.2205
    129  NE        62.7890   53.7020   20.2840 N.pl3 129  ARG129     -0.0865
    130  CZ        62.8420   54.6320   21.2330 C.cat 129  ARG129      0.5346
    131  NH1       63.0320   55.9040   20.9160 N.pl3 129  ARG129      0.1354
    132  NH2       62.6300   54.3040   22.4990 N.pl3 129  ARG129      0.1354
    133  N         61.8170   56.3860   14.0330 N.am  130  ASP130     -0.1957
    134  CA        61.5690   56.3580   12.5920 C.3   130  ASP130      0.1840
    135  C         61.7400   57.7100   11.9010 C.2   130  ASP130      0.2621
    136  O         61.0670   58.0150   10.9150 O.2   130  ASP130     -0.2715
    137  CB        60.1470   55.8250   12.3410 C.3   130  ASP130      0.1450
    138  CG        59.0510   56.7520   12.8880 C.2   130  ASP130      0.3671
    139  OD1       59.3280   57.6100   13.7530 O.co2 130  ASP130     -0.2456
    140  OD2       57.8890   56.6200   12.4600 O.co2 130  ASP130     -0.2456
    141  N         62.6610   58.5230   12.3730 N.am  131  MET131     -0.1977
    142  CA        62.8270   59.8090   11.7450 C.3   131  MET131      0.1605
    143  C         63.4000   59.6960   10.3340 C.2   131  MET131      0.2287
    144  O         62.8780   60.2950    9.4050 O.2   131  MET131     -0.2864
    145  CB        63.6460   60.7390   12.6310 C.3   131  MET131      0.0413
    146  CG        63.0190   60.9500   14.0130 C.3   131  MET131      0.0598
    147  SD        61.2600   61.4630   14.0600 S.3   131  MET131     -0.1393
    148  CE        61.4610   63.0470   13.9680 C.3   131  MET131      0.0692
    149  N         62.0550   46.3030   25.8310 N.3   179  ARG179     -0.1245
    150  CA        61.8110   47.5390   25.1070 C.3   179  ARG179      0.1563
    151  C         62.3380   47.4040   23.6740 C.2   179  ARG179      0.2260
    152  O         61.7590   47.9490   22.7390 O.2   179  ARG179     -0.2867
    153  CB        62.5250   48.7040   25.7610 C.3   179  ARG179      0.0307
    154  CG        61.9980   49.1360   27.0990 C.3   179  ARG179      0.0489
    155  CD        62.6390   50.4790   27.4250 C.3   179  ARG179      0.2205
    156  NE        62.8480   50.7030   28.8510 N.pl3 179  ARG179     -0.0865
    157  CZ        64.0210   51.0270   29.3930 C.cat 179  ARG179      0.5346
    158  NH1       65.1040   51.1650   28.6270 N.pl3 179  ARG179      0.1354
    159  NH2       64.1150   51.2140   30.7060 N.pl3 179  ARG179      0.1354
    160  N         60.2410   47.5500   19.9950 N.3   183  ASP183     -0.1239
    161  CA        60.6130   48.5870   19.0420 C.3   183  ASP183      0.1674
    162  C         60.9600   47.9910   17.6890 C.2   183  ASP183      0.2266
    163  O         60.5560   48.5000   16.6520 O.2   183  ASP183     -0.2867
    164  CB        61.8270   49.3750   19.5530 C.3   183  ASP183      0.1410
    165  CG        61.4520   50.5570   20.4620 C.2   183  ASP183      0.3668
    166  OD1       60.2680   50.9830   20.5060 O.co2 183  ASP183     -0.2456
    167  OD2       62.3820   51.0790   21.1260 O.co2 183  ASP183     -0.2456
    168  N         58.0740   45.5690   15.7960 N.3   186  ARG186     -0.1245
    169  CA        56.8330   46.2880   15.5820 C.3   186  ARG186      0.1563
    170  C         56.4390   46.2340   14.1080 C.2   186  ARG186      0.2260
    171  O         57.2580   46.5040   13.2240 O.2   186  ARG186     -0.2867
    172  CB        56.9990   47.7270   16.0390 C.3   186  ARG186      0.0307
    173  CG        55.7270   48.4780   16.1280 C.3   186  ARG186      0.0489
    174  CD        55.9230   49.7350   16.9570 C.3   186  ARG186      0.2205
    175  NE        56.9100   50.6460   16.3840 N.pl3 186  ARG186     -0.0865
    176  CZ        57.4610   51.6480   17.0490 C.cat 186  ARG186      0.5346
    177  NH1       57.1100   51.8650   18.3060 N.pl3 186  ARG186      0.1354
    178  NH2       58.3800   52.4060   16.4700 N.pl3 186  ARG186      0.1354
@<TRIPOS>BOND
     1   144   143    2
     2   143   142    1
     3   136   135    2
     4   142   141    1
     5   142   145    1
     6   135   141   am
     7   135   134    1
     8   137   134    1
     9   137   138    1
    10   140   138   ar
    11   111   112    2
    12   111   110    1
    13   134   133    1
    14   145   146    1
    15   101   100    2
    16   100    99    1
    17   138   139   ar
    18   171   170    2
    19   102    99    1
    20   102   103    1
    21   113   110    1
    22   113   114    1
    23   109   110    1
    24   148   147    1
    25    99    98    1
    26   146   147    1
    27   125   124    2
    28   133   124   am
    29   105   104    1
    30   105   106    2
    31   170   169    1
    32   104   103    1
    33   117   115   am
    34   115   116    2
    35   115   114    1
    36   124   123    1
    37   108   106    1
    38   106   107    1
    39   169   168    1
    40   169   172    1
    41    54    53    1
    42   172   173    1
    43   173   174    1
    44   123   122    1
    45   123   126    1
    46   175   174    1
    47   175   176    2
    48   178   176    1
    49   122   120   am
    50   163   162    2
    51   126   127    1
    52   176   177    1
    53   120   119    1
    54   120   121    2
    55    96    95    2
    56    53    52   ar
    57    53    51   ar
    58   119   118    1
    59    32    33    1
    60    32    29    1
    61   162   161    1
    62    52    50   ar
    63    51    49   ar
    64   127   128    1
    65    95    94    1
    66   128   129    1
    67    29    28    1
    68    29    30    1
    69   161   164    1
    70   161   160    1
    71    28    22   am
    72    50    48   ar
    73    49    48   ar
    74    94    97    1
    75    94    93    1
    76   164   165    1
    77    17    16    1
    78    17    18    1
    79    20    21    1
    80    30    31    2
    81    30    34   am
    82    48    47    1
    83    22    21    1
    84    22    23    2
    85   129   130    2
    86    16    15    1
    87   165   166   ar
    88   165   167   ar
    89    18    19    1
    90    21    24    1
    91    34    35    1
    92   131   130    1
    93    15    12    1
    94   130   132    1
    95    47    44    1
    96    14    13    2
    97    12    13    1
    98    12    11    1
    99    43    44    1
   100    35    36    1
   101    90    89    2
   102    44    45    1
   103    24    25    1
   104    26    25   ar
   105   152   151    2
   106    36    38   am
   107    36    37    2
   108    25    27   ar
   109     1     2    1
   110    85    84    2
   111    38    39    1
   112    89    88    1
   113    40    39    1
   114    40    41    2
   115    45    46    2
   116    45    55   am
   117   151   150    1
   118    88    91    1
   119    88    87    1
   120    39    42    1
   121     2     3    1
   122     2     5    1
   123    84    87   am
   124    84    83    1
   125    55    56    1
   126    91    92    1
   127     3     4    2
   128     3     7   am
   129     5     6    1
   130   150   153    1
   131   150   149    1
   132    83    86    1
   133    83    82    1
   134     7     8    1
   135     9    10    2
   136     9     8    1
   137   153   154    1
   138    56    57    1
   139    56    59    1
   140    57    58    2
   141    59    60    1
   142    60    61    1
   143    61    62    1
   144    62    63    2
   145    76    74    1
   146   154   155    1
   147    75    74    1
   148   155   156    1
   149    80    79    2
   150    74    73    2
   151    65    63    1
   152    63    64    1
   153   158   157    1
   154    79    78    1
   155   156   157    2
   156    73    72    1
   157    78    81    1
   158    78    77    1
   159   157   159    1
   160    72    71    1
   161    71    70    1
   162    66    67    1
   163    67    70    1
   164    67    68    1
   165    68    69    2
