@<TRIPOS>MOLECULE
tmp/2cmlC02.pdb
 83 81 0 0 0
SMALL
GASTEIGER

@<TRIPOS>ATOM
      1  N         63.7110   13.1720   71.3990 N.3   287  SER287     -0.1202
      2  CA        64.3990   14.0380   72.3100 C.3   287  SER287      0.2020
      3  C         65.3210   13.3160   73.2780 C.2   287  SER287      0.2619
      4  O         64.9420   12.3090   73.8970 O.2   287  SER287     -0.2717
      5  CB        63.4300   14.8970   73.1050 C.3   287  SER287      0.2103
      6  OG        64.1720   15.7840   73.8960 O.3   287  SER287     -0.2182
      7  N         66.5380   13.8550   73.3960 N.am  288  LYS288     -0.1965
      8  CA        67.5120   13.4320   74.3680 C.3   288  LYS288      0.1728
      9  C         67.2680   14.0000   75.7790 C.2   288  LYS288      0.2616
     10  O         67.7390   13.4070   76.7770 O.2   288  LYS288     -0.2715
     11  CB        68.9450   13.7230   73.8520 C.3   288  LYS288      0.0311
     12  CG        69.3720   15.1770   73.6700 C.3   288  LYS288      0.0038
     13  CD        70.9580   15.2240   73.5260 C.3   288  LYS288      0.0206
     14  CE        71.5220   16.6880   73.5630 C.3   288  LYS288      0.1093
     15  NZ        71.3800   17.4310   74.8520 N.3   288  LYS288     -0.1314
     16  N         66.5510   15.1390   75.8460 N.am  289  ASP289     -0.1957
     17  CA        66.2560   15.8100   77.0990 C.3   289  ASP289      0.1840
     18  C         64.9570   15.3570   77.7470 C.2   289  ASP289      0.2622
     19  O         64.8770   15.2900   78.9770 O.2   289  ASP289     -0.2715
     20  CB        66.1970   17.3600   76.9290 C.3   289  ASP289      0.1450
     21  CG        67.4150   17.9130   76.1820 C.2   289  ASP289      0.3671
     22  OD1       68.4880   17.9960   76.7930 O.co2 289  ASP289     -0.2456
     23  OD2       67.3060   18.2310   74.9640 O.co2 289  ASP289     -0.2456
     24  N         63.9640   15.0440   76.9140 N.am  290  SER290     -0.1950
     25  CA        62.5470   15.0670   77.3000 C.3   290  SER290      0.1924
     26  C         61.7510   13.9020   76.7480 C.2   290  SER290      0.2314
     27  O         62.1850   13.2130   75.8010 O.2   290  SER290     -0.2863
     28  CB        61.9190   16.3850   76.8570 C.3   290  SER290      0.2116
     29  OG        62.5720   17.4370   77.5700 O.3   290  SER290     -0.2180
     30  N         59.4890   13.4340   74.6080 N.3   292  SER292     -0.1217
     31  CA        58.8090   13.7990   73.3750 C.3   292  SER292      0.1889
     32  C         59.3950   13.0610   72.1890 C.2   292  SER292      0.2288
     33  O         60.6100   12.9000   72.1010 O.2   292  SER292     -0.2866
     34  CB        58.8170   15.3030   73.0830 C.3   292  SER292      0.2089
     35  OG        60.0800   15.8850   73.2020 O.3   292  SER292     -0.2183
     36  N         58.6780   14.3230   67.0670 N.3   319  ASN319     -0.1225
     37  CA        59.2620   15.1240   68.1680 C.3   319  ASN319      0.1785
     38  C         58.5280   16.4190   68.4700 C.2   319  ASN319      0.2597
     39  O         59.0350   17.2360   69.2470 O.2   319  ASN319     -0.2718
     40  CB        60.7700   15.4000   67.9590 C.3   319  ASN319      0.1169
     41  CG        61.5110   15.7720   69.2740 C.2   319  ASN319      0.2627
     42  OD1       62.5930   16.4550   69.2630 O.2   319  ASN319     -0.2716
     43  ND2       60.9540   15.3250   70.4020 N.am  319  ASN319     -0.0877
     44  N         57.3430   16.6000   67.8680 N.am  320  GLN320     -0.1965
     45  CA        56.4010   17.6540   68.2690 C.3   320  GLN320      0.1733
     46  C         55.3060   17.1340   69.2090 C.2   320  GLN320      0.2616
     47  O         54.4010   17.8850   69.5990 O.2   320  GLN320     -0.2715
     48  CB        55.7490   18.3010   67.0520 C.3   320  GLN320      0.0408
     49  CG        56.7230   19.1300   66.2220 C.3   320  GLN320      0.0908
     50  CD        56.1500   19.5400   64.8700 C.2   320  GLN320      0.2608
     51  OE1       56.1360   18.7540   63.9160 O.2   320  GLN320     -0.2717
     52  NE2       55.6930   20.7820   64.7760 N.am  320  GLN320     -0.0878
     53  N         55.3770   15.8450   69.5410 N.am  321  ASN321     -0.1958
     54  CA        54.3590   15.2180   70.3670 C.3   321  ASN321      0.1819
     55  C         55.0090   14.4900   71.4850 C.2   321  ASN321      0.2621
     56  O         56.0950   13.9160   71.3230 O.2   321  ASN321     -0.2715
     57  CB        53.4930   14.2480   69.5370 C.3   321  ASN321      0.1195
     58  CG        52.4630   14.9720   68.6690 C.2   321  ASN321      0.2630
     59  OD1       52.7070   15.2460   67.4950 O.2   321  ASN321     -0.2716
     60  ND2       51.3370   15.3060   69.2530 N.am  321  ASN321     -0.0877
     61  N         54.3250   14.5170   72.6140 N.am  322  TRP322     -0.1974
     62  CA        54.7360   13.8490   73.8580 C.3   322  TRP322      0.1640
     63  C         54.5870   12.3660   73.7870 C.2   322  TRP322      0.2290
     64  O         53.6290   11.8310   73.1640 O.2   322  TRP322     -0.2864
     65  CB        53.9440   14.3950   75.0560 C.3   322  TRP322      0.0576
     66  CG        54.0280   15.9050   75.1710 C.ar  322  TRP322      0.0006
     67  CD1       52.9910   16.8080   75.0230 C.ar  322  TRP322      0.0946
     68  CD2       55.2010   16.6980   75.4470 C.ar  322  TRP322      0.0152
     69  NE1       53.4450   18.0860   75.2140 N.ar  322  TRP322     -0.2442
     70  CE2       54.7850   18.0610   75.4670 C.ar  322  TRP322      0.0810
     71  CE3       56.5490   16.3910   75.6930 C.ar  322  TRP322      0.0012
     72  CZ2       55.6660   19.1130   75.6810 C.ar  322  TRP322      0.0191
     73  CZ3       57.4360   17.4420   75.9140 C.ar  322  TRP322      0.0001
     74  CH2       56.9880   18.7940   75.9120 C.ar  322  TRP322      0.0015
     75  N         54.4840   18.5980   81.5550 N.3   353  LYS353     -0.1245
     76  CA        54.7800   19.2960   80.2930 C.3   353  LYS353      0.1561
     77  C         53.7260   20.2650   79.8010 C.2   353  LYS353      0.2260
     78  O         54.0660   21.1640   79.0870 O.2   353  LYS353     -0.2867
     79  CB        55.2110   18.3620   79.1870 C.3   353  LYS353      0.0271
     80  CG        56.5220   17.6340   79.5040 C.3   353  LYS353      0.0035
     81  CD        57.7210   18.5970   79.4710 C.3   353  LYS353      0.0206
     82  CE        59.0080   17.8840   79.7880 C.3   353  LYS353      0.1093
     83  NZ        59.1250   17.7790   81.2710 N.3   353  LYS353     -0.1314
@<TRIPOS>BOND
     1    51    50    2
     2    52    50   am
     3    50    49    1
     4    49    48    1
     5    48    45    1
     6    36    37    1
     7    59    58    2
     8    44    45    1
     9    44    38   am
    10    40    37    1
    11    40    41    1
    12    37    38    1
    13    45    46    1
    14    38    39    2
    15    58    60   am
    16    58    57    1
    17    46    53   am
    18    46    47    2
    19    42    41    2
    20    41    43   am
    21    57    54    1
    22    53    54    1
    23    54    55    1
    24    56    55    2
    25     1     2    1
    26    55    61   am
    27    33    32    2
    28    32    31    1
    29     2     5    1
    30     2     3    1
    31    61    62    1
    32    34    35    1
    33    34    31    1
    34     5     6    1
    35    64    63    2
    36     3     7   am
    37     3     4    2
    38    31    30    1
    39     7     8    1
    40    13    14    1
    41    13    12    1
    42    14    15    1
    43    12    11    1
    44    63    62    1
    45    11     8    1
    46    62    65    1
    47     8     9    1
    48    23    21   ar
    49    67    66   ar
    50    67    69   ar
    51    65    66    1
    52    66    68   ar
    53    69    70   ar
    54    68    70   ar
    55    68    71   ar
    56    70    72   ar
    57    72    74   ar
    58    71    73   ar
    59     9    16   am
    60     9    10    2
    61    27    26    2
    62    16    17    1
    63    74    73   ar
    64    21    22   ar
    65    21    20    1
    66    26    25    1
    67    28    25    1
    68    28    29    1
    69    24    25    1
    70    24    18   am
    71    20    17    1
    72    17    18    1
    73    18    19    2
    74    78    77    2
    75    79    80    1
    76    79    76    1
    77    81    80    1
    78    81    82    1
    79    82    83    1
    80    77    76    1
    81    76    75    1
