@<TRIPOS>MOLECULE
tmp/2cmlC01.pdb
 171 160 0 0 0
SMALL
GASTEIGER

@<TRIPOS>ATOM
      1  N         48.3600    6.0490   84.2780 N.3    37  ARG37      -0.1231
      2  CA        49.6940    6.2090   83.7350 C.3    37  ARG37       0.1694
      3  C         50.2760    4.8020   83.8580 C.2    37  ARG37       0.2591
      4  O         49.6590    3.9220   84.4500 O.2    37  ARG37      -0.2718
      5  CB        50.5610    7.2650   84.4980 C.3    37  ARG37       0.0321
      6  CG        50.5340    8.8160   83.9530 C.3    37  ARG37       0.0489
      7  CD        51.9780    9.4950   83.9250 C.3    37  ARG37       0.2205
      8  NE        52.9800    8.5980   83.3300 N.pl3  37  ARG37      -0.0865
      9  CZ        54.2150    8.4290   83.8010 C.cat  37  ARG37       0.5346
     10  NH1       55.0290    7.5650   83.2070 N.pl3  37  ARG37       0.1354
     11  NH2       54.6320    9.1210   84.8710 N.pl3  37  ARG37       0.1354
     12  N         51.4900    4.6080   83.3610 N.am   38  GLU38      -0.1979
     13  CA        52.2520    3.3280   83.4340 C.3    38  GLU38       0.1602
     14  C         51.4400    2.1700   82.8060 C.2    38  GLU38       0.2287
     15  O         51.2470    1.1340   83.4910 O.2    38  GLU38      -0.2864
     16  CB        52.7440    2.9980   84.8810 C.3    38  GLU38       0.0415
     17  CG        53.6720    4.0380   85.5250 C.3    38  GLU38       0.1163
     18  CD        52.9050    5.2640   86.1440 C.2    38  GLU38       0.3649
     19  OE1       53.4910    6.3130   86.3540 O.co2  38  GLU38      -0.2457
     20  OE2       51.7110    5.1940   86.4520 O.co2  38  GLU38      -0.2457
     21  N         48.0110    1.7030   85.3960 N.3    53  LEU53      -0.1245
     22  CA        47.6800    2.0730   86.7590 C.3    53  LEU53       0.1561
     23  C         46.6140    3.2260   86.7830 C.2    53  LEU53       0.2260
     24  O         46.9090    4.3810   86.4240 O.2    53  LEU53      -0.2867
     25  CB        48.9280    2.3810   87.6080 C.3    53  LEU53       0.0270
     26  CG        50.0080    1.3520   87.9350 C.3    53  LEU53       0.0019
     27  CD1       51.1870    2.0420   88.6360 C.3    53  LEU53       0.0001
     28  CD2       49.4710    0.1980   88.8530 C.3    53  LEU53       0.0001
     29  N         52.4830   10.0340   91.9740 N.3    70  ASP70      -0.1225
     30  CA        52.7050    8.6550   91.5520 C.3    70  ASP70       0.1805
     31  C         52.0370    7.6030   92.4150 C.2    70  ASP70       0.2597
     32  O         51.6800    6.5440   91.9130 O.2    70  ASP70      -0.2718
     33  CB        54.2010    8.3660   91.6120 C.3    70  ASP70       0.1424
     34  CG        54.9560    8.8790   90.4110 C.2    70  ASP70       0.3668
     35  OD1       54.5510    8.6890   89.2630 O.co2  70  ASP70      -0.2456
     36  OD2       56.0090    9.4410   90.6310 O.co2  70  ASP70      -0.2456
     37  N         51.8510    7.9100   93.7060 N.am   71  ARG71      -0.1979
     38  CA        51.4990    6.9550   94.7370 C.3    71  ARG71       0.1597
     39  C         50.4080    7.4920   95.6830 C.2    71  ARG71       0.2287
     40  O         50.5890    8.5270   96.2930 O.2    71  ARG71      -0.2864
     41  CB        52.7690    6.5470   95.5530 C.3    71  ARG71       0.0334
     42  CG        53.8990    5.9290   94.6760 C.3    71  ARG71       0.0492
     43  CD        55.2010    5.6330   95.4750 C.3    71  ARG71       0.2205
     44  NE        55.6950    6.8120   96.1910 N.pl3  71  ARG71      -0.0865
     45  CZ        56.5500    7.7050   95.6780 C.cat  71  ARG71       0.5346
     46  NH1       57.0070    7.5540   94.4310 N.pl3  71  ARG71       0.1354
     47  NH2       56.9470    8.7590   96.3970 N.pl3  71  ARG71       0.1354
     48  N         44.8810    4.1240   93.6710 N.3    75  ARG75      -0.1245
     49  CA        45.3800    3.5860   92.4200 C.3    75  ARG75       0.1563
     50  C         45.1950    2.0690   92.4320 C.2    75  ARG75       0.2260
     51  O         45.1200    1.4370   93.5070 O.2    75  ARG75      -0.2867
     52  CB        46.8430    3.9050   92.2080 C.3    75  ARG75       0.0307
     53  CG        47.3050    5.3210   92.3310 C.3    75  ARG75       0.0489
     54  CD        48.5540    5.5230   91.4700 C.3    75  ARG75       0.2205
     55  NE        48.3100    5.6140   90.0140 N.pl3  75  ARG75      -0.0865
     56  CZ        49.2050    6.0940   89.1090 C.cat  75  ARG75       0.5346
     57  NH1       50.4200    6.5590   89.4560 N.pl3  75  ARG75       0.1354
     58  NH2       48.9060    6.1220   87.8430 N.pl3  75  ARG75       0.1354
     59  N         50.4400    0.9500   93.2960 N.3    98  TRP98      -0.1227
     60  CA        50.9860    2.0100   92.4330 C.3    98  TRP98       0.1737
     61  C         52.2610    1.5900   91.6820 C.2    98  TRP98       0.2596
     62  O         52.9800    2.4280   91.0890 O.2    98  TRP98      -0.2718
     63  CB        51.2280    3.2950   93.2390 C.3    98  TRP98       0.0564
     64  CG        51.6950    3.0630   94.6680 C.ar   98  TRP98       0.0003
     65  CD1       51.0080    3.3950   95.8030 C.ar   98  TRP98       0.0946
     66  CD2       52.9380    2.4280   95.1180 C.ar   98  TRP98       0.0152
     67  NE1       51.7390    3.0230   96.9240 N.ar   98  TRP98      -0.2442
     68  CE2       52.9300    2.4510   96.5290 C.ar   98  TRP98       0.0810
     69  CE3       54.0530    1.8500   94.4550 C.ar   98  TRP98       0.0012
     70  CZ2       53.9930    1.8960   97.3080 C.ar   98  TRP98       0.0191
     71  CZ3       55.1170    1.3120   95.2360 C.ar   98  TRP98       0.0001
     72  CH2       55.0630    1.3570   96.6450 C.ar   98  TRP98       0.0015
     73  N         52.5540    0.2960   91.7520 N.am   99  SER99      -0.1952
     74  CA        53.5480   -0.3360   90.9060 C.3    99  SER99       0.1924
     75  C         53.0760   -1.7450   90.6080 C.2    99  SER99       0.2314
     76  O         52.5640   -2.4370   91.5070 O.2    99  SER99      -0.2863
     77  CB        54.8720   -0.4280   91.6610 C.3    99  SER99       0.2116
     78  OG        55.9190   -0.8440   90.8280 O.3    99  SER99      -0.2180
     79  N         60.1720    2.3110   99.0370 N.3   142  ILE142     -0.1245
     80  CA        59.3080    2.2160   97.8440 C.3   142  ILE142      0.1561
     81  C         59.6080    0.9520   97.0690 C.2   142  ILE142      0.2260
     82  O         60.0550    1.0400   95.9440 O.2   142  ILE142     -0.2867
     83  CB        59.3970    3.4770   96.8560 C.3   142  ILE142      0.0252
     84  CG1       59.1550    4.7890   97.5840 C.3   142  ILE142      0.0019
     85  CG2       58.4230    3.3160   95.6330 C.3   142  ILE142      0.0019
     86  CD1       59.4490    6.0730   96.7710 C.3   142  ILE142      0.0001
     87  N         59.0090   -1.7590   94.5160 N.3   144  ARG144     -0.1245
     88  CA        58.4340   -1.4020   93.1680 C.3   144  ARG144      0.1563
     89  C         58.9270   -2.3800   92.0870 C.2   144  ARG144      0.2260
     90  O         59.9350   -3.0790   92.3170 O.2   144  ARG144     -0.2867
     91  CB        58.7690    0.0580   92.7780 C.3   144  ARG144      0.0307
     92  CG        60.2770    0.2980   92.6000 C.3   144  ARG144      0.0489
     93  CD        60.6250    1.7660   92.7570 C.3   144  ARG144      0.2205
     94  NE        62.0420    2.1140   92.5860 N.pl3 144  ARG144     -0.0865
     95  CZ        62.9180    2.1910   93.5870 C.cat 144  ARG144      0.5346
     96  NH1       62.5400    1.8560   94.7980 N.pl3 144  ARG144      0.1354
     97  NH2       64.1820    2.5190   93.3620 N.pl3 144  ARG144      0.1354
     98  N         56.3900   -2.2580   85.6940 N.3   147  GLU147     -0.1245
     99  CA        55.4360   -1.3770   84.9240 C.3   147  GLU147      0.1567
    100  C         55.1580   -1.8620   83.5070 C.2   147  GLU147      0.2260
    101  O         54.6930   -1.1020   82.6850 O.2   147  GLU147     -0.2867
    102  CB        55.8710    0.1140   84.9490 C.3   147  GLU147      0.0388
    103  CG        56.4620    0.5790   86.3130 C.3   147  GLU147      0.1160
    104  CD        55.4520    0.3980   87.5070 C.2   147  GLU147      0.3649
    105  OE1       55.8530    0.6930   88.6250 O.co2 147  GLU147     -0.2457
    106  OE2       54.2780   -0.0350   87.3360 O.co2 147  GLU147     -0.2457
    107  N         66.2340    5.8120   94.6240 N.3   166  ALA166     -0.1245
    108  CA        66.0730    6.2000   93.2070 C.3   166  ALA166      0.1562
    109  C         67.3570    6.7560   92.6200 C.2   166  ALA166      0.2260
    110  O         67.5140    6.7690   91.3920 O.2   166  ALA166     -0.2867
    111  CB        65.0250    7.3300   93.1260 C.3   166  ALA166      0.0290
    112  N         65.5380   -0.4720   87.5090 N.3   196  GLU196     -0.1231
    113  CA        64.1410   -0.1090   87.7250 C.3   196  GLU196      0.1699
    114  C         63.3180   -0.5260   86.4800 C.2   196  GLU196      0.2592
    115  O         63.8550   -0.5540   85.3750 O.2   196  GLU196     -0.2718
    116  CB        63.9900    1.4130   87.9530 C.3   196  GLU196      0.0402
    117  CG        64.7470    1.9260   89.1080 C.3   196  GLU196      0.1161
    118  CD        64.3020    3.2620   89.5640 C.2   196  GLU196      0.3649
    119  OE1       64.1080    3.4700   90.7960 O.co2 196  GLU196     -0.2457
    120  OE2       64.1520    4.1400   88.7090 O.co2 196  GLU196     -0.2457
    121  N         62.0280   -0.8510   86.6580 N.am  197  GLU197     -0.1979
    122  CA        61.1310   -0.8060   85.5330 C.3   197  GLU197      0.1602
    123  C         61.5880   -1.6170   84.3050 C.2   197  GLU197      0.2287
    124  O         61.5530   -1.1230   83.1930 O.2   197  GLU197     -0.2864
    125  CB        60.9370    0.6960   85.1690 C.3   197  GLU197      0.0415
    126  CG        60.1290    1.4040   86.2330 C.3   197  GLU197      0.1163
    127  CD        59.8040    2.8790   85.9340 C.2   197  GLU197      0.3649
    128  OE1       60.4900    3.5050   85.1200 O.co2 197  GLU197     -0.2457
    129  OE2       58.8540    3.4160   86.5550 O.co2 197  GLU197     -0.2457
    130  N         65.8620    0.2990   83.4080 N.3   212  ARG212     -0.1245
    131  CA        66.1210    1.7200   83.5470 C.3   212  ARG212      0.1563
    132  C         67.0900    1.8640   84.7340 C.2   212  ARG212      0.2260
    133  O         66.8440    1.2970   85.7870 O.2   212  ARG212     -0.2867
    134  CB        64.8060    2.4760   83.8100 C.3   212  ARG212      0.0307
    135  CG        64.9300    3.9080   84.3440 C.3   212  ARG212      0.0489
    136  CD        63.6120    4.2390   85.0340 C.3   212  ARG212      0.2205
    137  NE        63.5690    5.5840   85.6400 N.pl3 212  ARG212     -0.0865
    138  CZ        62.4800    6.3550   85.7370 C.cat 212  ARG212      0.5346
    139  NH1       61.3230    5.9760   85.2230 N.pl3 212  ARG212      0.1354
    140  NH2       62.5530    7.5250   86.3240 N.pl3 212  ARG212      0.1354
    141  N         68.2000    4.6320   86.9920 N.3   214  ASN214     -0.1240
    142  CA        67.8760    5.9800   87.4070 C.3   214  ASN214      0.1653
    143  C         69.0320    6.6680   88.0880 C.2   214  ASN214      0.2266
    144  O         68.9620    7.8580   88.4280 O.2   214  ASN214     -0.2867
    145  CB        66.6920    5.9140   88.3790 C.3   214  ASN214      0.1155
    146  CG        65.8260    7.1500   88.3490 C.2   214  ASN214      0.2627
    147  OD1       65.1980    7.4570   87.3460 O.2   214  ASN214     -0.2716
    148  ND2       65.6880    7.8000   89.4930 N.am  214  ASN214     -0.0877
    149  N         60.5910   13.6640   77.3560 N.3   291  ARG291     -0.1245
    150  CA        59.6980   12.5990   76.9180 C.3   291  ARG291      0.1563
    151  C         58.8240   13.0470   75.6970 C.2   291  ARG291      0.2260
    152  O         57.5710   13.0330   75.7460 O.2   291  ARG291     -0.2867
    153  CB        58.8600   12.0910   78.1060 C.3   291  ARG291      0.0307
    154  CG        59.5850   11.0870   79.0150 C.3   291  ARG291      0.0489
    155  CD        58.9910   11.1390   80.4500 C.3   291  ARG291      0.2205
    156  NE        59.8210   10.4790   81.4650 N.pl3 291  ARG291     -0.0865
    157  CZ        59.4130   10.0860   82.6720 C.cat 291  ARG291      0.5346
    158  NH1       58.1430   10.2610   83.0760 N.pl3 291  ARG291      0.1354
    159  NH2       60.2900    9.4610   83.4750 N.pl3 291  ARG291      0.1354
    160  N         56.5430    6.3840   78.8520 N.3   325  TYR325     -0.1241
    161  CA        57.1080    5.0520   79.0430 C.3   325  TYR325      0.1605
    162  C         56.9840    4.1570   77.7920 C.2   325  TYR325      0.2264
    163  O         56.1500    4.3880   76.9350 O.2   325  TYR325     -0.2867
    164  CB        56.4020    4.3640   80.2240 C.3   325  TYR325      0.0534
    165  CG        56.9520    4.6790   81.5840 C.ar  325  TYR325     -0.0201
    166  CD1       57.7600    5.8000   81.8110 C.ar  325  TYR325     -0.0009
    167  CD2       56.6250    3.8630   82.6820 C.ar  325  TYR325     -0.0009
    168  CE1       58.2850    6.0760   83.1040 C.ar  325  TYR325      0.0417
    169  CE2       57.1020    4.1340   83.9540 C.ar  325  TYR325      0.0417
    170  CZ        57.9340    5.2350   84.1530 C.ar  325  TYR325      0.1957
    171  OH        58.4100    5.4730   85.4100 O.3   325  TYR325     -0.2866
@<TRIPOS>BOND
     1   151   152    2
     2   151   150    1
     3   150   149    1
     4   150   153    1
     5   163   162    2
     6   162   161    1
     7   153   154    1
     8   160   161    1
     9   154   155    1
    10   161   164    1
    11   164   165    1
    12   155   156    1
    13   156   157    2
    14   165   166   ar
    15   165   167   ar
    16   166   168   ar
    17   157   158    1
    18   157   159    1
    19   167   169   ar
    20   101   100    2
    21    14    13    1
    22    14    15    2
    23   168   170   ar
    24   124   123    2
    25    10     9    1
    26     8     9    2
    27     8     7    1
    28    12    13    1
    29    12     3   am
    30   130   131    1
    31    13    16    1
    32   100    99    1
    33   131   134    1
    34   131   132    1
    35     2     3    1
    36     2     1    1
    37     2     5    1
    38     9    11    1
    39   134   135    1
    40     3     4    2
    41     7     6    1
    42     6     5    1
    43   169   170   ar
    44   170   171    1
    45   123   122    1
    46   135   136    1
    47   132   133    2
    48    16    17    1
    49    99   102    1
    50    99    98    1
    51   102   103    1
    52   136   137    1
    53   128   127   ar
    54   125   122    1
    55   125   126    1
    56   139   138    1
    57   115   114    2
    58    21    22    1
    59    17    18    1
    60   122   121    1
    61   137   138    2
    62   138   140    1
    63   127   126    1
    64   127   129   ar
    65    18    19   ar
    66    18    20   ar
    67   103   104    1
    68    24    23    2
    69   114   121   am
    70   114   113    1
    71    22    23    1
    72    22    25    1
    73   141   142    1
    74   106   104   ar
    75   147   146    2
    76   142   143    1
    77   142   145    1
    78   104   105   ar
    79   112   113    1
    80    25    26    1
    81   113   116    1
    82    58    56    1
    83    26    27    1
    84    26    28    1
    85   116   117    1
    86   143   144    2
    87   146   145    1
    88   146   148   am
    89   120   118   ar
    90   117   118    1
    91    56    57    1
    92    56    55    2
    93    35    34   ar
    94   118   119   ar
    95    55    54    1
    96    34    36   ar
    97    34    33    1
    98    75    74    1
    99    75    76    2
   100    78    77    1
   101    74    77    1
   102    74    73    1
   103    62    61    2
   104   110   109    2
   105    54    53    1
   106    30    33    1
   107    30    29    1
   108    30    31    1
   109    61    73   am
   110    61    60    1
   111    32    31    2
   112    89    90    2
   113    89    88    1
   114    52    53    1
   115    52    49    1
   116    31    37   am
   117    49    50    1
   118    49    48    1
   119    50    51    2
   120    60    63    1
   121    60    59    1
   122    94    93    1
   123    94    95    2
   124    92    93    1
   125    92    91    1
   126   109   108    1
   127    91    88    1
   128   111   108    1
   129    88    87    1
   130   108   107    1
   131    63    64    1
   132    97    95    1
   133    95    96    1
   134    37    38    1
   135    46    45    1
   136    69    66   ar
   137    69    71   ar
   138    64    66   ar
   139    64    65   ar
   140    42    43    1
   141    42    41    1
   142    38    41    1
   143    38    39    1
   144    66    68   ar
   145    71    72   ar
   146    43    44    1
   147    85    83    1
   148    45    44    2
   149    45    47    1
   150    39    40    2
   151    65    67   ar
   152    82    81    2
   153    68    67   ar
   154    68    70   ar
   155    72    70   ar
   156    86    84    1
   157    83    84    1
   158    83    80    1
   159    81    80    1
   160    80    79    1
