@<TRIPOS>MOLECULE
tmp/2cmmA00.pdb
 162 155 0 0 0
SMALL
GASTEIGER

@<TRIPOS>ATOM
      1  N         34.0820   29.4740   18.8160 N.3    32  LEU32      -0.1245
      2  CA        33.6690   29.8070   17.4700 C.3    32  LEU32       0.1561
      3  C         34.6770   30.7520   16.7700 C.2    32  LEU32       0.2260
      4  O         34.9850   30.5040   15.5740 O.2    32  LEU32      -0.2867
      5  CB        32.2370   30.5370   17.5950 C.3    32  LEU32       0.0270
      6  CG        31.7850   31.2130   16.3570 C.3    32  LEU32       0.0019
      7  CD1       31.3640   30.3210   15.2230 C.3    32  LEU32       0.0001
      8  CD2       30.5350   32.1030   16.7110 C.3    32  LEU32       0.0001
      9  N         34.0930   34.4790   10.9740 N.3    39  THR39      -0.1218
     10  CA        32.7400   34.8090   11.5400 C.3    39  THR39       0.1862
     11  C         32.7870   36.0660   12.3730 C.2    39  THR39       0.2287
     12  O         31.8390   36.8470   12.5620 O.2    39  THR39      -0.2866
     13  CB        32.1290   33.5610   12.2640 C.3    39  THR39       0.1770
     14  OG1       32.9540   33.3060   13.4460 O.3    39  THR39      -0.2211
     15  CG2       32.0690   32.2450   11.5210 C.3    39  THR39       0.0375
     16  N         31.3910   39.4060   11.0990 N.3    42  LYS42      -0.1231
     17  CA        29.9500   39.5240   11.1230 C.3    42  LYS42       0.1693
     18  C         29.4770   40.2040   12.4260 C.2    42  LYS42       0.2592
     19  O         28.2420   40.5240   12.5260 O.2    42  LYS42      -0.2718
     20  CB        29.1920   38.1830   11.0820 C.3    42  LYS42       0.0285
     21  CG        29.1400   37.4870    9.7280 C.3    42  LYS42       0.0035
     22  CD        28.7580   38.4290    8.5750 C.3    42  LYS42       0.0206
     23  CE        28.2450   37.6910    7.3300 C.3    42  LYS42       0.1093
     24  NZ        27.6820   38.6980    6.3750 N.3    42  LYS42      -0.1314
     25  N         30.2590   40.4280   13.4320 N.am   43  PHE43      -0.1976
     26  CA        29.8250   41.0620   14.7170 C.3    43  PHE43       0.1639
     27  C         30.5470   42.4070   14.8230 C.2    43  PHE43       0.2290
     28  O         31.7670   42.5940   14.9810 O.2    43  PHE43      -0.2864
     29  CB        30.0990   40.2480   15.9360 C.3    43  PHE43       0.0560
     30  CG        29.5730   38.8480   15.9610 C.ar   43  PHE43      -0.0200
     31  CD1       30.1400   37.8400   15.2220 C.ar   43  PHE43      -0.0042
     32  CD2       28.4450   38.5680   16.7480 C.ar   43  PHE43      -0.0042
     33  CE1       29.6480   36.5350   15.2170 C.ar   43  PHE43      -0.0003
     34  CE2       27.9390   37.2680   16.7920 C.ar   43  PHE43      -0.0003
     35  CZ        28.5240   36.2520   16.0450 C.ar   43  PHE43      -0.0000
     36  N         26.8580   39.0850   25.4620 N.3    64  HIS64      -0.1241
     37  CA        26.3220   38.4760   24.2250 C.3    64  HIS64       0.1621
     38  C         26.1530   36.9940   24.3810 C.2    64  HIS64       0.2264
     39  O         25.1800   36.3990   23.9150 O.2    64  HIS64      -0.2867
     40  CB        27.1070   38.9160   22.9760 C.3    64  HIS64       0.0745
     41  CG        26.3540   38.5310   21.7340 C.ar   64  HIS64       0.0817
     42  ND1       25.1440   39.1610   21.4490 N.ar   64  HIS64      -0.2268
     43  CD2       26.5530   37.6570   20.7360 C.ar   64  HIS64       0.1154
     44  CE1       24.6720   38.6260   20.3340 C.ar   64  HIS64       0.1986
     45  NE2       25.4790   37.7390   19.8580 N.ar   64  HIS64      -0.2212
     46  N         22.8920   36.3570   26.1010 N.3    67  THR67      -0.1203
     47  CA        21.8060   36.6240   25.1570 C.3    67  THR67       0.1994
     48  C         21.5990   35.4750   24.1720 C.2    67  THR67       0.2617
     49  O         20.4730   34.9800   23.9650 O.2    67  THR67      -0.2717
     50  CB        22.0230   37.9020   24.3280 C.3    67  THR67       0.1784
     51  OG1       22.1140   38.9800   25.3090 O.3    67  THR67      -0.2211
     52  CG2       20.9300   38.0680   23.2840 C.3    67  THR67       0.0376
     53  N         22.6960   34.9760   23.5980 N.am   68  VAL68      -0.1979
     54  CA        22.6670   33.8440   22.6900 C.3    68  VAL68       0.1595
     55  C         22.1300   32.5710   23.3750 C.2    68  VAL68       0.2287
     56  O         21.2430   31.9130   22.7460 O.2    68  VAL68      -0.2864
     57  CB        24.0960   33.6420   22.0920 C.3    68  VAL68       0.0276
     58  CG1       24.0240   32.2840   21.3250 C.3    68  VAL68       0.0022
     59  CG2       24.5240   34.7740   21.1620 C.3    68  VAL68       0.0022
     60  N         18.2210   32.8340   24.3480 N.3    71  ALA71      -0.1231
     61  CA        17.4070   32.6490   23.1550 C.3    71  ALA71       0.1694
     62  C         17.4390   31.1760   22.7420 C.2    71  ALA71       0.2591
     63  O         16.3690   30.5760   22.5340 O.2    71  ALA71      -0.2718
     64  CB        17.7930   33.5570   22.0130 C.3    71  ALA71       0.0304
     65  N         18.5930   30.5260   22.6160 N.am   72  LEU72      -0.1980
     66  CA        18.6480   29.1330   22.2050 C.3    72  LEU72       0.1596
     67  C         17.9620   28.2020   23.2200 C.2    72  LEU72       0.2287
     68  O         17.3110   27.2180   22.8580 O.2    72  LEU72      -0.2864
     69  CB        20.1560   28.7810   22.0110 C.3    72  LEU72       0.0297
     70  CG        20.1510   27.3520   21.4520 C.3    72  LEU72       0.0022
     71  CD1       19.6920   27.4660   19.9920 C.3    72  LEU72       0.0001
     72  CD2       21.4550   26.6600   21.6640 C.3    72  LEU72       0.0001
     73  N         14.2130   35.4780   15.6940 N.3    89  LEU89      -0.1245
     74  CA        15.6660   35.1990   15.6020 C.3    89  LEU89       0.1561
     75  C         16.1110   35.0270   14.1740 C.2    89  LEU89       0.2260
     76  O         17.1010   35.6800   13.7500 O.2    89  LEU89      -0.2867
     77  CB        15.8980   34.0130   16.5570 C.3    89  LEU89       0.0270
     78  CG        17.2440   33.3470   16.5870 C.3    89  LEU89       0.0019
     79  CD1       18.4110   34.3100   16.6760 C.3    89  LEU89       0.0001
     80  CD2       17.2710   32.5070   17.8990 C.3    89  LEU89       0.0001
     81  N         15.7560   38.4200   12.0370 N.3    92  SER92      -0.1202
     82  CA        16.8250   39.3930   12.3460 C.3    92  SER92       0.2020
     83  C         18.2050   38.9700   11.7810 C.2    92  SER92       0.2618
     84  O         18.9030   39.7860   11.2030 O.2    92  SER92      -0.2717
     85  CB        16.9560   39.7870   13.7810 C.3    92  SER92       0.2103
     86  OG        16.9060   38.7060   14.6630 O.3    92  SER92      -0.2182
     87  N         18.4930   37.6730   11.9680 N.am   93  HIS93      -0.1975
     88  CA        19.8010   37.1860   11.4510 C.3    93  HIS93       0.1656
     89  C         19.8330   37.3200    9.9600 C.2    93  HIS93       0.2291
     90  O         20.9560   37.4620    9.4080 O.2    93  HIS93      -0.2864
     91  CB        20.0790   35.7010   11.9400 C.3    93  HIS93       0.0771
     92  CG        20.5760   35.8020   13.3770 C.ar   93  HIS93       0.0820
     93  ND1       19.8510   36.2410   14.4400 N.ar   93  HIS93      -0.2267
     94  CD2       21.8310   35.5460   13.8690 C.ar   93  HIS93       0.1154
     95  CE1       20.5640   36.2350   15.5640 C.ar   93  HIS93       0.1986
     96  NE2       21.7590   35.8260   15.1630 N.ar   93  HIS93      -0.2212
     97  N         18.8640   41.9190    9.4880 N.3    96  LYS96      -0.1231
     98  CA        19.7680   42.8370   10.1640 C.3    96  LYS96       0.1693
     99  C         21.1970   42.2740   10.1080 C.2    96  LYS96       0.2588
    100  O         22.0340   43.1610    9.8350 O.2    96  LYS96      -0.2718
    101  CB        19.6130   43.2410   11.5620 C.3    96  LYS96       0.0285
    102  CG        18.4740   43.3280   12.4600 C.3    96  LYS96       0.0035
    103  CD        18.9190   44.0170   13.7840 C.3    96  LYS96       0.0206
    104  CE        18.1330   43.5430   15.0140 C.3    96  LYS96       0.1093
    105  NZ        18.7370   42.3170   15.6150 N.3    96  LYS96      -0.1314
    106  N         21.4960   41.0530   10.3890 N.am   97  HIS97      -0.2029
    107  CA        22.9260   40.6010   10.4530 C.3    97  HIS97       0.1342
    108  C         23.4330   39.9890    9.1700 C.3    97  HIS97       0.2040
    109  O         24.7330   39.9800    9.0120 O.3    97  HIS97      -0.2185
    110  CB        23.1240   39.7040   11.7060 C.3    97  HIS97       0.0718
    111  CG        22.4650   40.3070   12.9180 C.ar   97  HIS97       0.0817
    112  ND1       22.7380   41.5580   13.3800 N.ar   97  HIS97      -0.2268
    113  CD2       21.4700   39.8260   13.7270 C.ar   97  HIS97       0.1154
    114  CE1       21.9670   41.8220   14.4580 C.ar   97  HIS97       0.1986
    115  NE2       21.1790   40.8080   14.6650 N.ar   97  HIS97      -0.2212
    116  N         23.6270   36.7330    8.0250 N.3    99  ILE99      -0.1245
    117  CA        24.4120   35.5730    8.4820 C.3    99  ILE99       0.1561
    118  C         23.9900   34.4050    7.6170 C.2    99  ILE99       0.2260
    119  O         22.8190   33.9190    7.6360 O.2    99  ILE99      -0.2867
    120  CB        24.0530   35.2140   10.0200 C.3    99  ILE99       0.0252
    121  CG1       24.3670   36.2930   11.0390 C.3    99  ILE99       0.0019
    122  CG2       24.6030   33.8250   10.4500 C.3    99  ILE99       0.0019
    123  CD1       25.6200   37.1890   10.8470 C.3    99  ILE99       0.0001
    124  N         27.2210   29.8140    9.0730 N.3   103  TYR103     -0.1227
    125  CA        27.6080   30.3220   10.3790 C.3   103  TYR103      0.1736
    126  C         26.9570   29.6100   11.5740 C.2   103  TYR103      0.2595
    127  O         27.4450   29.5530   12.6900 O.2   103  TYR103     -0.2718
    128  CB        27.4140   31.8440   10.4640 C.3   103  TYR103      0.0548
    129  CG        28.4970   32.6360    9.7680 C.ar  103  TYR103     -0.0200
    130  CD1       29.4120   31.9990    8.9140 C.ar  103  TYR103     -0.0009
    131  CD2       28.6630   33.9990    9.9900 C.ar  103  TYR103     -0.0009
    132  CE1       30.4420   32.6620    8.2510 C.ar  103  TYR103      0.0417
    133  CE2       29.7090   34.6930    9.3430 C.ar  103  TYR103      0.0417
    134  CZ        30.5720   34.0240    8.4800 C.ar  103  TYR103      0.1957
    135  OH        31.5510   34.7520    7.8970 O.3   103  TYR103     -0.2866
    136  N         25.7220   29.1700   11.2580 N.am  104  LEU104     -0.1980
    137  CA        24.8540   28.4240   12.1310 C.3   104  LEU104      0.1596
    138  C         25.4490   27.0160   12.2580 C.2   104  LEU104      0.2287
    139  O         25.3310   26.4790   13.3440 O.2   104  LEU104     -0.2864
    140  CB        23.4040   28.4260   11.6500 C.3   104  LEU104      0.0297
    141  CG        22.5910   29.7100   11.9300 C.3   104  LEU104      0.0022
    142  CD1       23.2570   30.9140   11.4930 C.3   104  LEU104      0.0001
    143  CD2       21.2270   29.4660   11.2490 C.3   104  LEU104      0.0001
    144  N         28.5300   27.6490   14.8010 N.3   107  ILE107     -0.1245
    145  CA        28.2330   27.8020   16.2030 C.3   107  ILE107      0.1561
    146  C         27.6260   26.4670   16.7480 C.2   107  ILE107      0.2260
    147  O         27.8250   26.1750   17.9530 O.2   107  ILE107     -0.2867
    148  CB        27.3800   29.0460   16.4170 C.3   107  ILE107      0.0252
    149  CG1       27.5170   29.5970   17.8380 C.3   107  ILE107      0.0019
    150  CG2       25.8540   28.7510   16.0160 C.3   107  ILE107      0.0019
    151  CD1       26.9500   31.0540   18.0420 C.3   107  ILE107      0.0001
    152  N         16.8330   23.1370   14.4210 N.3   138  PHE138     -0.1241
    153  CA        16.9810   24.5920   14.6430 C.3   138  PHE138      0.1605
    154  C         17.4720   25.2770   13.3570 C.2   138  PHE138      0.2264
    155  O         16.8830   26.2160   12.8130 O.2   138  PHE138     -0.2867
    156  CB        17.8620   24.7650   15.8710 C.3   138  PHE138      0.0534
    157  CG        18.4980   26.1000   16.0290 C.ar  138  PHE138     -0.0203
    158  CD1       17.7810   27.1550   16.5450 C.ar  138  PHE138     -0.0042
    159  CD2       19.8220   26.3090   15.5920 C.ar  138  PHE138     -0.0042
    160  CE1       18.3420   28.4590   16.6920 C.ar  138  PHE138     -0.0003
    161  CE2       20.3770   27.5860   15.7020 C.ar  138  PHE138     -0.0003
    162  CZ        19.6800   28.6540   16.2370 C.ar  138  PHE138     -0.0000
@<TRIPOS>BOND
     1    24    23    1
     2    23    22    1
     3   118   119    2
     4   118   117    1
     5   135   134    1
     6   116   117    1
     7   132   134   ar
     8   132   130   ar
     9   134   133   ar
    10   117   120    1
    11    22    21    1
    12   130   129   ar
    13   109   108    1
    14   124   125    1
    15   108   107    1
    16   133   131   ar
    17    90    89    2
    18    97    98    1
    19    21    20    1
    20   129   131   ar
    21   129   128    1
    22   100    99    2
    23    89    88    1
    24   120   122    1
    25   120   121    1
    26    99    98    1
    27    99   106   am
    28    98   101    1
    29   125   128    1
    30   125   126    1
    31   106   107    1
    32   107   110    1
    33   123   121    1
    34     9    10    1
    35    20    17    1
    36    16    17    1
    37    17    18    1
    38    84    83    2
    39   143   141    1
    40   136   126   am
    41   136   137    1
    42    88    91    1
    43    88    87    1
    44   142   141    1
    45    15    13    1
    46    10    13    1
    47    10    11    1
    48   101   102    1
    49   126   127    2
    50   140   141    1
    51   140   137    1
    52   110   111    1
    53    83    87   am
    54    83    82    1
    55    91    92    1
    56    81    82    1
    57   137   138    1
    58   138   139    2
    59    13    14    1
    60    82    85    1
    61    11    12    2
    62    18    19    2
    63    18    25   am
    64   102   103    1
    65   155   154    2
    66   111   112   ar
    67   111   113   ar
    68   154   153    1
    69    92    94   ar
    70    92    93   ar
    71   112   114   ar
    72    25    26    1
    73   113   115   ar
    74    76    75    2
    75    85    86    1
    76   103   104    1
    77    94    96   ar
    78    75    74    1
    79   152   153    1
    80    93    95   ar
    81   114   115   ar
    82   153   156    1
    83    26    27    1
    84    26    29    1
    85   144   145    1
    86    27    28    2
    87   104   105    1
    88    96    95   ar
    89    33    31   ar
    90    33    35   ar
    91    31    30   ar
    92     7     6    1
    93     4     3    2
    94   159   161   ar
    95   159   157   ar
    96    74    73    1
    97    74    77    1
    98   161   162   ar
    99   156   157    1
   100    29    30    1
   101    30    32   ar
   102   150   148    1
   103   157   158   ar
   104    35    34   ar
   105   145   148    1
   106   145   146    1
   107   162   160   ar
   108     6     8    1
   109     6     5    1
   110   148   149    1
   111   158   160   ar
   112    77    78    1
   113    78    79    1
   114    78    80    1
   115   146   147    2
   116    32    34   ar
   117     3     2    1
   118     2     5    1
   119     2     1    1
   120   149   151    1
   121    45    44   ar
   122    45    43   ar
   123    71    70    1
   124    44    42   ar
   125    43    41   ar
   126    59    57    1
   127    58    57    1
   128    42    41   ar
   129    70    72    1
   130    70    69    1
   131    41    40    1
   132    69    66    1
   133    64    61    1
   134    57    54    1
   135    66    65    1
   136    66    67    1
   137    63    62    2
   138    65    62   am
   139    54    55    1
   140    54    53    1
   141    62    61    1
   142    56    55    2
   143    68    67    2
   144    40    37    1
   145    61    60    1
   146    52    50    1
   147    53    48   am
   148    39    38    2
   149    49    48    2
   150    48    47    1
   151    37    38    1
   152    37    36    1
   153    50    47    1
   154    50    51    1
   155    47    46    1
