@<TRIPOS>MOLECULE
tmp/2cmoA00.pdb
 177 169 0 0 0
SMALL
GASTEIGER

@<TRIPOS>ATOM
      1  N         -2.9890   33.8610   18.7500 N.3     7  ILE7       -0.1245
      2  CA        -3.1640   32.5880   19.4440 C.3     7  ILE7        0.1561
      3  C         -3.5830   32.8000   20.8920 C.2     7  ILE7        0.2260
      4  O         -3.0800   33.7000   21.5610 O.2     7  ILE7       -0.2867
      5  CB        -1.8580   31.7710   19.4260 C.3     7  ILE7        0.0252
      6  CG1       -2.0440   30.4660   20.2040 C.3     7  ILE7        0.0019
      7  CG2       -0.7280   32.5930   20.0280 C.3     7  ILE7        0.0019
      8  CD1       -0.8250   29.5770   20.2050 C.3     7  ILE7        0.0001
      9  N         -3.4500   32.9220   24.4190 N.3     9  GLU9       -0.1301
     10  CA        -2.3770   32.8660   25.3990 C.3     9  GLU9        0.1252
     11  C         -2.5710   33.9560   26.3860 C.3     9  GLU9        0.2009
     12  O         -2.4510   35.2000   25.9780 O.3     9  GLU9       -0.2188
     13  CB        -1.0220   32.9600   24.7070 C.3     9  GLU9        0.0335
     14  CG         0.1480   32.5150   25.5580 C.3     9  GLU9        0.1156
     15  CD         0.3070   31.0050   25.6050 C.2     9  GLU9        0.3649
     16  OE1        0.6410   30.4040   24.5600 O.co2   9  GLU9       -0.2457
     17  OE2        0.1000   30.4190   26.6890 O.co2   9  GLU9       -0.2457
     18  N         -2.1460   37.7120   26.9470 N.3    12  TYR12      -0.1241
     19  CA        -2.0540   38.3060   25.6170 C.3    12  TYR12       0.1605
     20  C         -3.3870   38.2940   24.8750 C.2    12  TYR12       0.2264
     21  O         -3.9200   39.3470   24.5290 O.2    12  TYR12      -0.2867
     22  CB        -0.9900   37.5650   24.8100 C.3    12  TYR12       0.0534
     23  CG         0.3590   37.5790   25.4880 C.ar   12  TYR12      -0.0201
     24  CD1        1.2460   38.6410   25.3040 C.ar   12  TYR12      -0.0009
     25  CD2        0.7320   36.5530   26.3540 C.ar   12  TYR12      -0.0009
     26  CE1        2.4730   38.6780   25.9660 C.ar   12  TYR12       0.0417
     27  CE2        1.9510   36.5820   27.0210 C.ar   12  TYR12       0.0417
     28  CZ         2.8170   37.6450   26.8230 C.ar   12  TYR12       0.1957
     29  OH         4.0250   37.6730   27.4820 O.3    12  TYR12      -0.2866
     30  N          0.1160   26.6580   16.7570 N.3    56  LYS56      -0.1231
     31  CA         1.5710   26.7750   16.8160 C.3    56  LYS56       0.1693
     32  C          1.9680   28.2270   16.5770 C.2    56  LYS56       0.2592
     33  O          1.1840   29.0070   16.0380 O.2    56  LYS56      -0.2718
     34  CB         2.2260   25.9050   15.7390 C.3    56  LYS56       0.0285
     35  CG         2.1080   24.4080   15.9500 C.3    56  LYS56       0.0035
     36  CD         2.8550   23.9670   17.1940 C.3    56  LYS56       0.0206
     37  CE         3.2010   22.4850   17.1300 C.3    56  LYS56       0.1093
     38  NZ         2.0190   21.6270   16.8440 N.3    56  LYS56      -0.1314
     39  N          3.1820   28.5920   16.9720 N.am   57  TYR57      -0.1962
     40  CA         3.6530   29.9550   16.7610 C.3    57  TYR57       0.1771
     41  C          4.3580   30.0900   15.4170 C.2    57  TYR57       0.2620
     42  O          4.0910   31.0230   14.6590 O.2    57  TYR57      -0.2715
     43  CB         4.5960   30.3870   17.8850 C.3    57  TYR57       0.0574
     44  CG         3.8830   30.8180   19.1440 C.ar   57  TYR57      -0.0198
     45  CD1        3.2900   29.8840   19.9910 C.ar   57  TYR57      -0.0009
     46  CD2        3.7870   32.1670   19.4820 C.ar   57  TYR57      -0.0009
     47  CE1        2.6200   30.2840   21.1470 C.ar   57  TYR57       0.0417
     48  CE2        3.1190   32.5780   20.6330 C.ar   57  TYR57       0.0417
     49  CZ         2.5390   31.6310   21.4610 C.ar   57  TYR57       0.1957
     50  OH         1.8980   32.0310   22.6100 O.3    57  TYR57      -0.2866
     51  N          5.2580   29.1590   15.1230 N.am   58  GLY58      -0.1940
     52  CA         5.9670   29.2120   13.8590 C.3    58  GLY58       0.2014
     53  C          7.2780   28.4540   13.8570 C.2    58  GLY58       0.2638
     54  O          8.2490   28.8710   14.4870 O.2    58  GLY58      -0.2714
     55  N          7.3040   27.3370   13.1400 N.am   59  ALA59      -0.1977
     56  CA         8.5010   26.5140   13.0480 C.3    59  ALA59       0.1597
     57  C          8.4780   25.7200   11.7510 C.2    59  ALA59       0.2287
     58  O          7.4210   25.2640   11.3150 O.2    59  ALA59      -0.2864
     59  CB         8.5800   25.5700   14.2390 C.3    59  ALA59       0.0319
     60  N          2.6040   37.0060   21.1300 N.3    85  PRO85      -0.2102
     61  CA         3.9310   36.9890   21.7500 C.3    85  PRO85       0.1504
     62  C          4.9080   36.1260   20.9560 C.2    85  PRO85       0.2576
     63  O          5.4910   35.1800   21.4870 O.2    85  PRO85      -0.2718
     64  CB         3.6490   36.4270   23.1390 C.3    85  PRO85       0.0282
     65  CG         2.5170   35.4790   22.8790 C.3    85  PRO85       0.0208
     66  CD         1.6250   36.2920   21.9690 C.3    85  PRO85       0.0893
     67  N          5.0720   36.4580   19.6780 N.am   86  LEU86      -0.1966
     68  CA         5.9710   35.7290   18.7900 C.3    86  LEU86       0.1728
     69  C          7.4040   36.2110   18.9940 C.2    86  LEU86       0.2616
     70  O          7.6960   37.3970   18.8350 O.2    86  LEU86      -0.2715
     71  CB         5.5510   35.9440   17.3340 C.3    86  LEU86       0.0311
     72  CG         6.3440   35.1880   16.2670 C.3    86  LEU86       0.0022
     73  CD1        6.2320   33.6910   16.5140 C.3    86  LEU86       0.0001
     74  CD2        5.8150   35.5440   14.8860 C.3    86  LEU86       0.0001
     75  N          8.2920   35.2870   19.3430 N.am   87  THR87      -0.1951
     76  CA         9.6940   35.6190   19.5830 C.3    87  THR87       0.1897
     77  C         10.4720   35.8140   18.2860 C.2    87  THR87       0.2313
     78  O         10.3590   35.0130   17.3570 O.2    87  THR87      -0.2863
     79  CB        10.3920   34.5170   20.4060 C.3    87  THR87       0.1794
     80  OG1        9.6380   34.2600   21.5980 O.3    87  THR87      -0.2208
     81  CG2       11.8070   34.9470   20.7840 C.3    87  THR87       0.0378
     82  N         13.2170   32.5420   11.6890 N.3    92  ARG92      -0.1245
     83  CA        11.9280   33.1800   11.4350 C.3    92  ARG92       0.1563
     84  C         12.1200   34.4730   10.6600 C.2    92  ARG92       0.2260
     85  O         11.3970   34.7480    9.7030 O.2    92  ARG92      -0.2867
     86  CB        11.2040   33.4740   12.7510 C.3    92  ARG92       0.0307
     87  CG        10.5950   32.2520   13.4110 C.3    92  ARG92       0.0489
     88  CD        10.0650   32.5880   14.7920 C.3    92  ARG92       0.2205
     89  NE         9.4090   31.4450   15.4200 N.pl3  92  ARG92      -0.0865
     90  CZ         9.1010   31.3780   16.7110 C.cat  92  ARG92       0.5346
     91  NH1        9.3920   32.3890   17.5170 N.pl3  92  ARG92       0.1354
     92  NH2        8.5030   30.3000   17.1980 N.pl3  92  ARG92       0.1354
     93  N         10.8100   22.4030   29.7020 N.3   134  LEU134     -0.1245
     94  CA         9.8780   21.6780   28.8560 C.3   134  LEU134      0.1561
     95  C         10.6810   20.5990   28.1450 C.2   134  LEU134      0.2260
     96  O         11.7990   20.8530   27.7010 O.2   134  LEU134     -0.2867
     97  CB         9.2640   22.6370   27.8370 C.3   134  LEU134      0.0270
     98  CG         7.7680   22.9530   27.9110 C.3   134  LEU134      0.0019
     99  CD1        7.2750   22.9350   29.3470 C.3   134  LEU134      0.0001
    100  CD2        7.5270   24.3100   27.2700 C.3   134  LEU134      0.0001
    101  N         10.6450   19.7800   25.4710 N.3   136  SER136     -0.1202
    102  CA        10.6480   20.1730   24.0650 C.3   136  SER136      0.2020
    103  C         10.4570   21.6830   23.9710 C.2   136  SER136      0.2619
    104  O          9.6290   22.2560   24.6780 O.2   136  SER136     -0.2717
    105  CB         9.5210   19.4650   23.3080 C.3   136  SER136      0.2103
    106  OG         8.2490   19.8540   23.7960 O.3   136  SER136     -0.2182
    107  N         11.2270   22.3280   23.1020 N.am  137  GLY137     -0.1942
    108  CA        11.1120   23.7670   22.9520 C.3   137  GLY137      0.2014
    109  C         12.4600   24.4510   22.8760 C.2   137  GLY137      0.2639
    110  O         13.4960   23.7870   22.8460 O.2   137  GLY137     -0.2714
    111  N         12.4490   25.7810   22.8510 N.am  138  SER138     -0.1949
    112  CA        13.6780   26.5630   22.7690 C.3   138  SER138      0.1924
    113  C         14.4090   26.6400   24.1060 C.2   138  SER138      0.2314
    114  O         15.6390   26.6760   24.1430 O.2   138  SER138     -0.2863
    115  CB        13.3710   27.9780   22.2680 C.3   138  SER138      0.2116
    116  OG        12.4790   28.6500   23.1390 O.3   138  SER138     -0.2180
    117  N          5.8270   18.2350   30.7610 N.3   168  ARG168     -0.1231
    118  CA         5.2050   18.2160   29.4430 C.3   168  ARG168      0.1694
    119  C          4.5560   19.5460   29.0820 C.2   168  ARG168      0.2593
    120  O          4.4220   19.8800   27.9030 O.2   168  ARG168     -0.2718
    121  CB         4.1650   17.0930   29.3610 C.3   168  ARG168      0.0321
    122  CG         2.8640   17.3610   30.1070 C.3   168  ARG168      0.0489
    123  CD         1.8850   16.2030   29.9180 C.3   168  ARG168      0.2205
    124  NE         0.5130   16.5630   30.2660 N.pl3 168  ARG168     -0.0865
    125  CZ        -0.5330   15.7560   30.1140 C.cat 168  ARG168      0.5346
    126  NH1       -0.3670   14.5370   29.6200 N.pl3 168  ARG168      0.1354
    127  NH2       -1.7490   16.1700   30.4440 N.pl3 168  ARG168      0.1354
    128  N          4.1580   20.3030   30.0990 N.am  169  THR169     -0.1939
    129  CA         3.5190   21.5970   29.8870 C.3   169  THR169      0.2028
    130  C          3.9330   22.6300   30.9280 C.2   169  THR169      0.2642
    131  O          4.5310   22.2970   31.9510 O.2   169  THR169     -0.2714
    132  CB         1.9830   21.4750   29.9280 C.3   169  THR169      0.1808
    133  OG1        1.5800   20.9140   31.1840 O.3   169  THR169     -0.2208
    134  CG2        1.4870   20.5950   28.7920 C.3   169  THR169      0.0379
    135  N          3.6080   23.8890   30.6540 N.am  170  THR170     -0.1950
    136  CA         3.9270   24.9770   31.5670 C.3   170  THR170      0.1897
    137  C          3.1370   24.7800   32.8560 C.2   170  THR170      0.2313
    138  O          3.6330   25.0550   33.9490 O.2   170  THR170     -0.2863
    139  CB         3.5530   26.3410   30.9630 C.3   170  THR170      0.1794
    140  OG1        4.2320   26.5110   29.7140 O.3   170  THR170     -0.2208
    141  CG2        3.9500   27.4660   31.9040 C.3   170  THR170      0.0378
    142  N          9.8170   31.3610   30.3050 N.3   189  GLU189     -0.1245
    143  CA         9.8680   32.7580   29.8790 C.3   189  GLU189      0.1567
    144  C          9.6780   33.7010   31.0660 C.2   189  GLU189      0.2260
    145  O          8.8900   33.4250   31.9700 O.2   189  GLU189     -0.2867
    146  CB         8.7780   33.0300   28.8400 C.3   189  GLU189      0.0388
    147  CG         9.1150   32.6080   27.4190 C.3   189  GLU189      0.1160
    148  CD         7.9090   32.6770   26.4980 C.2   189  GLU189      0.3649
    149  OE1        8.0830   32.9750   25.2970 O.co2 189  GLU189     -0.2457
    150  OE2        6.7840   32.4200   26.9740 O.co2 189  GLU189     -0.2457
    151  N          8.3310   36.7680   31.0990 N.3   191  THR191     -0.1203
    152  CA         6.9810   37.3260   31.0300 C.3   191  THR191      0.1994
    153  C          5.9400   36.3920   31.6420 C.2   191  THR191      0.2617
    154  O          4.9910   36.8330   32.2910 O.2   191  THR191     -0.2717
    155  CB         6.5730   37.5950   29.5710 C.3   191  THR191      0.1784
    156  OG1        6.6250   36.3690   28.8280 O.3   191  THR191     -0.2211
    157  CG2        7.5110   38.6080   28.9330 C.3   191  THR191      0.0376
    158  N          6.1290   35.0980   31.4250 N.am  192  MET192     -0.1979
    159  CA         5.2140   34.0910   31.9320 C.3   192  MET192      0.1605
    160  C          5.5040   33.7980   33.4000 C.2   192  MET192      0.2287
    161  O          4.6010   33.4680   34.1670 O.2   192  MET192     -0.2864
    162  CB         5.3520   32.8240   31.0900 C.3   192  MET192      0.0413
    163  CG         4.2190   31.8310   31.2340 C.3   192  MET192      0.0598
    164  SD         3.9160   30.9900   29.6600 S.3   192  MET192     -0.1393
    165  CE         5.4760   30.0760   29.4240 C.3   192  MET192      0.0692
    166  N          9.6100   39.8050   21.7550 N.3   216  TYR216     -0.1241
    167  CA         8.4780   39.5220   20.8800 C.3   216  TYR216      0.1605
    168  C          8.3590   40.6140   19.8220 C.2   216  TYR216      0.2264
    169  O          8.7420   41.7600   20.0560 O.2   216  TYR216     -0.2867
    170  CB         7.1690   39.4630   21.6760 C.3   216  TYR216      0.0534
    171  CG         7.1590   38.4640   22.8090 C.ar  216  TYR216     -0.0201
    172  CD1        7.6120   37.1580   22.6190 C.ar  216  TYR216     -0.0009
    173  CD2        6.6870   38.8210   24.0720 C.ar  216  TYR216     -0.0009
    174  CE1        7.6000   36.2340   23.6580 C.ar  216  TYR216      0.0417
    175  CE2        6.6680   37.9040   25.1190 C.ar  216  TYR216      0.0417
    176  CZ         7.1280   36.6140   24.9050 C.ar  216  TYR216      0.1957
    177  OH         7.1330   35.7080   25.9400 O.3   216  TYR216     -0.2866
@<TRIPOS>BOND
     1    85    84    2
     2    84    83    1
     3    58    57    2
     4    83    82    1
     5    83    86    1
     6    57    56    1
     7    86    87    1
     8    56    55    1
     9    56    59    1
    10    55    53   am
    11    87    88    1
    12    53    52    1
    13    53    54    2
    14    52    51    1
    15    42    41    2
    16    88    89    1
    17    74    72    1
    18    51    41   am
    19    41    40    1
    20    89    90    2
    21    34    35    1
    22    34    31    1
    23    35    36    1
    24    33    32    2
    25    72    73    1
    26    72    71    1
    27    32    31    1
    28    32    39   am
    29    90    92    1
    30    90    91    1
    31    30    31    1
    32    40    39    1
    33    40    43    1
    34    38    37    1
    35    37    36    1
    36    71    68    1
    37    78    77    2
    38    43    44    1
    39    77    76    1
    40     1     2    1
    41    68    69    1
    42    68    67    1
    43    70    69    2
    44    69    75   am
    45    44    46   ar
    46    44    45   ar
    47    75    76    1
    48     5     2    1
    49     5     7    1
    50     5     6    1
    51     2     3    1
    52    46    48   ar
    53    76    79    1
    54    67    62   am
    55   168   169    2
    56   168   167    1
    57    45    47   ar
    58     6     8    1
    59    79    81    1
    60    79    80    1
    61    48    49   ar
    62   167   170    1
    63   167   166    1
    64     3     4    2
    65    62    63    2
    66    62    61    1
    67    60    61    1
    68    60    66    1
    69    47    49   ar
    70    49    50    1
    71   170   171    1
    72    61    64    1
    73    66    65    1
    74   115   112    1
    75   115   116    1
    76   172   171   ar
    77   172   174   ar
    78   112   111    1
    79   112   113    1
    80   171   173   ar
    81   110   109    2
    82   111   109   am
    83   109   108    1
    84    65    64    1
    85   108   107    1
    86   107   103   am
    87   105   106    1
    88   105   102    1
    89   174   176   ar
    90   103   102    1
    91   103   104    2
    92   102   101    1
    93   173   175   ar
    94   113   114    2
    95     9    10    1
    96    21    20    2
    97    16    15   ar
    98    13    10    1
    99    13    14    1
   100    22    23    1
   101    22    19    1
   102    20    19    1
   103   176   175   ar
   104   176   177    1
   105   149   148   ar
   106    24    23   ar
   107    24    26   ar
   108    10    11    1
   109    23    25   ar
   110    14    15    1
   111    15    17   ar
   112    19    18    1
   113    26    28   ar
   114    12    11    1
   115    25    27   ar
   116   148   150   ar
   117   148   147    1
   118    28    27   ar
   119    28    29    1
   120   100    98    1
   121   147   146    1
   122    96    95    2
   123    97    98    1
   124    97    94    1
   125   120   119    2
   126    98    99    1
   127    95    94    1
   128   134   132    1
   129   156   155    1
   130   146   143    1
   131    94    93    1
   132   157   155    1
   133   119   118    1
   134   119   128   am
   135   121   118    1
   136   121   122    1
   137   165   164    1
   138   118   117    1
   139   155   152    1
   140   126   125    1
   141   164   163    1
   142   140   139    1
   143   143   142    1
   144   143   144    1
   145   129   132    1
   146   129   128    1
   147   129   130    1
   148   123   122    1
   149   123   124    1
   150   132   133    1
   151   125   124    2
   152   125   127    1
   153   135   130   am
   154   135   136    1
   155   130   131    2
   156   139   136    1
   157   139   141    1
   158   152   151    1
   159   152   153    1
   160   144   145    2
   161   162   163    1
   162   162   159    1
   163   158   153   am
   164   158   159    1
   165   136   137    1
   166   153   154    2
   167   159   160    1
   168   137   138    2
   169   160   161    2
