@<TRIPOS>MOLECULE
tmp/2cmwA02.pdb
 129 125 0 0 0
SMALL
GASTEIGER

@<TRIPOS>ATOM
      1  N         23.2590   37.8880   -4.8890 N.3     3  VAL3       -0.1231
      2  CA        22.9240   37.6910   -3.5170 C.3     3  VAL3        0.1692
      3  C         23.4960   36.3860   -3.0370 C.2     3  VAL3        0.2592
      4  O         23.6410   35.4280   -3.8130 O.2     3  VAL3       -0.2718
      5  CB        21.3910   37.7090   -3.2660 C.3     3  VAL3        0.0266
      6  CG1       20.8340   39.0550   -3.5850 C.3     3  VAL3        0.0020
      7  CG2       20.7240   36.6000   -4.0770 C.3     3  VAL3        0.0020
      8  N         23.8480   36.3690   -1.7580 N.am    4  GLY4       -0.1957
      9  CA        24.5060   35.2200   -1.1250 C.3     4  GLY4        0.1869
     10  C         26.0050   35.3820   -1.0330 C.2     4  GLY4        0.2309
     11  O         26.6640   34.6630   -0.2900 O.2     4  GLY4       -0.2863
     12  N         26.5590   38.8130    4.5580 N.3    16  ARG16      -0.1231
     13  CA        26.2360   38.3760    3.2130 C.3    16  ARG16       0.1694
     14  C         25.2950   39.3630    2.5530 C.2    16  ARG16       0.2592
     15  O         24.5530   40.0850    3.2410 O.2    16  ARG16      -0.2718
     16  CB        25.6050   36.9810    3.2160 C.3    16  ARG16       0.0321
     17  CG        26.6170   35.9030    3.4720 C.3    16  ARG16       0.0489
     18  CD        26.0310   34.5110    3.2630 C.3    16  ARG16       0.2205
     19  NE        26.8720   33.5270    3.9270 N.pl3  16  ARG16      -0.0865
     20  CZ        26.5030   32.2810    4.2050 C.cat  16  ARG16       0.5346
     21  NH1       25.3080   31.8340    3.8380 N.pl3  16  ARG16       0.1354
     22  NH2       27.3490   31.4750    4.8230 N.pl3  16  ARG16       0.1354
     23  N         25.3680   39.4030    1.2260 N.am   17  LEU17      -0.1966
     24  CA        24.5000   40.2280    0.3900 C.3    17  LEU17       0.1728
     25  C         23.1350   39.5970    0.2530 C.2    17  LEU17       0.2617
     26  O         23.0320   38.4180   -0.0770 O.2    17  LEU17      -0.2715
     27  CB        25.1340   40.3710   -0.9920 C.3    17  LEU17       0.0311
     28  CG        24.5800   41.4330   -1.9110 C.3    17  LEU17       0.0022
     29  CD1       24.7180   42.8250   -1.2480 C.3    17  LEU17       0.0001
     30  CD2       25.3370   41.3630   -3.2320 C.3    17  LEU17       0.0001
     31  N         22.0890   40.3810    0.5140 N.am   18  GLY18      -0.1940
     32  CA        20.7180   39.9320    0.3210 C.3    18  GLY18       0.2014
     33  C         19.9720   40.9110   -0.5590 C.2    18  GLY18       0.2639
     34  O         20.5210   41.9490   -0.9870 O.2    18  GLY18      -0.2714
     35  N         18.7360   40.5460   -0.8490 N.am   19  LYS19      -0.1963
     36  CA        17.7920   41.3880   -1.5780 C.3    19  LYS19       0.1728
     37  C         16.5090   41.5770   -0.7880 C.2    19  LYS19       0.2616
     38  O         16.0020   40.6540   -0.1450 O.2    19  LYS19      -0.2715
     39  CB        17.4930   40.7740   -2.9460 C.3    19  LYS19       0.0311
     40  CG        16.4960   41.5580   -3.7570 C.3    19  LYS19       0.0038
     41  CD        16.5050   41.1600   -5.2330 C.3    19  LYS19       0.0206
     42  CE        16.0050   39.7560   -5.4580 C.3    19  LYS19       0.1093
     43  NZ        15.8540   39.4370   -6.9260 N.3    19  LYS19      -0.1314
     44  N         15.9760   42.7840   -0.8420 N.am   20  ASN20      -0.1958
     45  CA        14.6360   43.0730   -0.3450 C.3    20  ASN20       0.1819
     46  C         13.6760   42.8990   -1.5040 C.2    20  ASN20       0.2621
     47  O         13.6730   43.6700   -2.4770 O.2    20  ASN20      -0.2715
     48  CB        14.6050   44.4850    0.2090 C.3    20  ASN20       0.1195
     49  CG        13.2570   44.8890    0.7410 C.2    20  ASN20       0.2630
     50  OD1       12.2270   44.1870    0.5670 O.2    20  ASN20      -0.2716
     51  ND2       13.2350   46.0540    1.3880 N.am   20  ASN20      -0.0877
     52  N         12.8440   41.8720   -1.4100 N.am   21  LEU21      -0.1963
     53  CA        11.8700   41.5650   -2.4700 C.3    21  LEU21       0.1728
     54  C         10.8310   42.6600   -2.7080 C.2    21  LEU21       0.2616
     55  O         10.2380   42.7490   -3.7910 O.2    21  LEU21      -0.2715
     56  CB        11.1960   40.2130   -2.1860 C.3    21  LEU21       0.0311
     57  CG        12.1260   38.9840   -2.1850 C.3    21  LEU21       0.0022
     58  CD1       11.3580   37.7510   -1.6880 C.3    21  LEU21       0.0001
     59  CD2       12.7140   38.6830   -3.5630 C.3    21  LEU21       0.0001
     60  N         10.6120   43.5050   -1.7040 N.am   22  TYR22      -0.1974
     61  CA         9.6600   44.5830   -1.8640 C.3    22  TYR22       0.1639
     62  C         10.1600   45.6810   -2.7800 C.2    22  TYR22       0.2290
     63  O          9.3820   46.3320   -3.4460 O.2    22  TYR22      -0.2864
     64  CB         9.3500   45.2040   -0.5020 C.3    22  TYR22       0.0560
     65  CG         8.5960   44.3770    0.4850 C.ar   22  TYR22      -0.0198
     66  CD1        7.8900   43.2110    0.1260 C.ar   22  TYR22      -0.0009
     67  CD2        8.4590   44.8440    1.7890 C.ar   22  TYR22      -0.0009
     68  CE1        7.1450   42.5150    1.0740 C.ar   22  TYR22       0.0417
     69  CE2        7.7010   44.1740    2.7130 C.ar   22  TYR22       0.0417
     70  CZ         7.0490   43.0240    2.3670 C.ar   22  TYR22       0.1957
     71  OH         6.3300   42.4000    3.3510 O.3    22  TYR22      -0.2866
     72  N         20.4400   44.4540    0.4370 N.3    27  VAL27      -0.1245
     73  CA        20.4900   44.6240    1.8920 C.3    27  VAL27       0.1561
     74  C         21.6830   43.8250    2.4600 C.2    27  VAL27       0.2260
     75  O         22.2690   42.9730    1.7780 O.2    27  VAL27      -0.2867
     76  CB        19.1770   44.1540    2.5570 C.3    27  VAL27       0.0252
     77  CG1       18.0020   45.0340    2.1080 C.3    27  VAL27       0.0019
     78  CG2       18.9180   42.6750    2.2380 C.3    27  VAL27       0.0019
     79  N         22.9990   41.1090    5.2960 N.3    29  ILE29      -0.1245
     80  CA        22.5410   40.0040    6.1830 C.3    29  ILE29       0.1561
     81  C         23.6940   39.6580    7.0970 C.2    29  ILE29       0.2260
     82  O         24.6890   39.1130    6.6650 O.2    29  ILE29      -0.2867
     83  CB        22.1600   38.7220    5.3910 C.3    29  ILE29       0.0252
     84  CG1       21.1920   39.0340    4.2390 C.3    29  ILE29       0.0019
     85  CG2       21.5210   37.7030    6.3580 C.3    29  ILE29       0.0019
     86  CD1       21.0650   37.8970    3.2570 C.3    29  ILE29       0.0001
     87  N         15.3900   45.4280    9.3270 N.3    62  TYR62      -0.1227
     88  CA        14.2420   44.8270    8.6470 C.3    62  TYR62       0.1736
     89  C         13.7480   43.5120    9.2310 C.2    62  TYR62       0.2595
     90  O         12.5610   43.2280    9.1460 O.2    62  TYR62      -0.2718
     91  CB        14.5560   44.6080    7.1800 C.3    62  TYR62       0.0548
     92  CG        14.9940   45.8610    6.4620 C.ar   62  TYR62      -0.0200
     93  CD1       14.1280   46.9350    6.3120 C.ar   62  TYR62      -0.0009
     94  CD2       16.2570   45.9630    5.9100 C.ar   62  TYR62      -0.0009
     95  CE1       14.5320   48.0920    5.6330 C.ar   62  TYR62       0.0417
     96  CE2       16.6680   47.1140    5.2330 C.ar   62  TYR62       0.0417
     97  CZ        15.8060   48.1720    5.1150 C.ar   62  TYR62       0.1957
     98  OH        16.1810   49.3150    4.4380 O.3    62  TYR62      -0.2866
     99  N         14.6320   42.7050    9.8140 N.am   63  TYR63      -0.1976
    100  CA        14.2900   41.3170   10.1100 C.3    63  TYR63       0.1639
    101  C         15.3030   40.6870   11.0500 C.2    63  TYR63       0.2290
    102  O         16.5200   40.9860   11.0000 O.2    63  TYR63      -0.2864
    103  CB        14.2300   40.5080    8.7970 C.3    63  TYR63       0.0560
    104  CG        13.8170   39.0740    8.9510 C.ar   63  TYR63      -0.0198
    105  CD1       12.4720   38.7080    8.9240 C.ar   63  TYR63      -0.0009
    106  CD2       14.7780   38.0830    9.1540 C.ar   63  TYR63      -0.0009
    107  CE1       12.0870   37.3660    9.0910 C.ar   63  TYR63       0.0417
    108  CE2       14.4190   36.7590    9.3210 C.ar   63  TYR63       0.0417
    109  CZ        13.0760   36.4040    9.2820 C.ar   63  TYR63       0.1957
    110  OH        12.7610   35.0770    9.4370 O.3    63  TYR63      -0.2866
    111  N         15.9130   32.7970   12.3110 N.3    66  PRO66      -0.2116
    112  CA        16.7960   31.6810   12.0280 C.3    66  PRO66       0.1372
    113  C         16.8180   31.4040   10.5330 C.2    66  PRO66       0.2244
    114  O         15.8040   31.6330    9.8470 O.2    66  PRO66      -0.2868
    115  CB        16.1210   30.5120   12.7670 C.3    66  PRO66       0.0268
    116  CG        14.6760   30.8460   12.6870 C.3    66  PRO66       0.0207
    117  CD        14.6250   32.3430   12.8740 C.3    66  PRO66       0.0892
    118  N         19.9290   35.2630   11.6290 N.3    71  ALA71      -0.1245
    119  CA        20.1700   36.2720   10.6030 C.3    71  ALA71       0.1562
    120  C         19.5250   37.5860   11.0460 C.2    71  ALA71       0.2260
    121  O         18.3840   37.5840   11.5010 O.2    71  ALA71      -0.2867
    122  CB        19.5610   35.8160    9.2930 C.3    71  ALA71       0.0290
    123  N         18.7630   41.2970    9.2850 N.3    73  VAL73      -0.1245
    124  CA        18.8320   41.9460    7.9820 C.3    73  VAL73       0.1561
    125  C         18.6410   43.4410    8.0850 C.2    73  VAL73       0.2260
    126  O         17.7130   43.9250    8.7470 O.2    73  VAL73      -0.2867
    127  CB        17.7890   41.3810    7.0360 C.3    73  VAL73       0.0252
    128  CG1       17.9730   42.0460    5.6710 C.3    73  VAL73       0.0019
    129  CG2       17.9660   39.8810    6.9390 C.3    73  VAL73       0.0019
@<TRIPOS>BOND
     1    43    42    1
     2    42    41    1
     3    41    40    1
     4     1     2    1
     5     7     5    1
     6     4     3    2
     7    55    54    2
     8    40    39    1
     9     6     5    1
    10    59    57    1
    11     2     5    1
    12     2     3    1
    13    63    62    2
    14    30    28    1
    15     3     8   am
    16    39    36    1
    17    62    61    1
    18    54    53    1
    19    54    60   am
    20    47    46    2
    21    53    56    1
    22    53    52    1
    23    56    57    1
    24    57    58    1
    25    28    29    1
    26    28    27    1
    27    61    60    1
    28    61    64    1
    29     8     9    1
    30    36    35    1
    31    36    37    1
    32    46    52   am
    33    46    45    1
    34     9    10    1
    35    10    11    2
    36    27    24    1
    37    34    33    2
    38    35    33   am
    39    44    37   am
    40    44    45    1
    41    37    38    2
    42    33    32    1
    43    64    65    1
    44    45    48    1
    45    26    25    2
    46    66    65   ar
    47    66    68   ar
    48    48    49    1
    49    25    24    1
    50    25    31   am
    51    32    31    1
    52    24    23    1
    53    72    73    1
    54    65    67   ar
    55    50    49    2
    56    49    51   am
    57    68    70   ar
    58    23    14   am
    59    75    74    2
    60    67    69   ar
    61    73    74    1
    62    73    76    1
    63    77    76    1
    64    78    76    1
    65    70    69   ar
    66    70    71    1
    67    14    13    1
    68    14    15    2
    69    13    16    1
    70    13    12    1
    71    16    17    1
    72    86    84    1
    73    18    17    1
    74    18    19    1
    75    21    20    1
    76    19    20    2
    77    20    22    1
    78    84    83    1
    79    98    97    1
    80    97    96   ar
    81    97    95   ar
    82    96    94   ar
    83    79    80    1
    84    83    80    1
    85    83    85    1
    86    95    93   ar
    87   128   127    1
    88    94    92   ar
    89    80    81    1
    90    93    92   ar
    91    92    91    1
    92    82    81    2
    93   129   127    1
    94   127   124    1
    95    91    88    1
    96   124   125    1
    97   124   123    1
    98   125   126    2
    99    88    89    1
   100    88    87    1
   101   103   104    1
   102   103   100    1
   103   105   104   ar
   104   105   107   ar
   105   104   106   ar
   106   107   109   ar
   107    90    89    2
   108   106   108   ar
   109    89    99   am
   110   109   108   ar
   111   109   110    1
   112   122   119    1
   113    99   100    1
   114   114   113    2
   115   100   101    1
   116   113   112    1
   117   119   120    1
   118   119   118    1
   119   102   101    2
   120   120   121    2
   121   112   111    1
   122   112   115    1
   123   111   117    1
   124   116   115    1
   125   116   117    1
