@<TRIPOS>MOLECULE
tmp/2cmwA00.pdb
 151 144 0 0 0
SMALL
GASTEIGER

@<TRIPOS>ATOM
      1  N         30.2710   39.3410    1.9870 N.3     7  ILE7       -0.1231
      2  CA        30.7320   40.7190    1.9020 C.3     7  ILE7        0.1692
      3  C         31.3700   41.2130    3.2010 C.2     7  ILE7        0.2592
      4  O         31.6770   42.3900    3.3310 O.2     7  ILE7       -0.2718
      5  CB        29.5910   41.6600    1.4200 C.3     7  ILE7        0.0266
      6  CG1       28.4100   41.6540    2.4210 C.3     7  ILE7        0.0019
      7  CG2       29.1870   41.2700   -0.0190 C.3     7  ILE7        0.0020
      8  CD1       27.3620   42.7770    2.2050 C.3     7  ILE7        0.0001
      9  N         31.6070   40.3100    4.1510 N.am    8  GLY8       -0.1957
     10  CA        32.2680   40.6510    5.3730 C.3     8  GLY8        0.1869
     11  C         32.5330   39.4490    6.2580 C.2     8  GLY8        0.2309
     12  O         31.7800   38.5000    6.2800 O.2     8  GLY8       -0.2863
     13  N         28.9420   38.3710    7.0220 N.3    15  LEU15      -0.1245
     14  CA        28.0200   39.3250    6.4170 C.3    15  LEU15       0.1561
     15  C         27.8160   38.8680    4.9930 C.2    15  LEU15       0.2260
     16  O         28.7810   38.5820    4.2700 O.2    15  LEU15      -0.2867
     17  CB        28.6180   40.7500    6.4630 C.3    15  LEU15       0.0270
     18  CG        27.6570   41.8950    6.1540 C.3    15  LEU15       0.0019
     19  CD1       26.5610   42.0310    7.2350 C.3    15  LEU15       0.0001
     20  CD2       28.4380   43.2090    6.0420 C.3    15  LEU15       0.0001
     21  N         22.0070   44.0910    3.7320 N.3    28  ALA28      -0.1245
     22  CA        23.0860   43.3900    4.4490 C.3    28  ALA28       0.1562
     23  C         22.4590   42.3210    5.3390 C.2    28  ALA28       0.2260
     24  O         21.5040   42.5980    6.0720 O.2    28  ALA28      -0.2867
     25  CB        23.8870   44.3900    5.2980 C.3    28  ALA28       0.0290
     26  N         23.5480   40.0200    8.3570 N.3    30  LYS30      -0.1245
     27  CA        24.4800   39.7150    9.3770 C.3    30  LYS30       0.1561
     28  C         24.1190   38.3590    9.9880 C.2    30  LYS30       0.2260
     29  O         22.9950   38.1400   10.4460 O.2    30  LYS30      -0.2867
     30  CB        24.5320   40.8300   10.4290 C.3    30  LYS30       0.0271
     31  CG        25.7460   40.7550   11.3150 C.3    30  LYS30       0.0035
     32  CD        25.8200   41.9440   12.3070 C.3    30  LYS30       0.0206
     33  CE        27.0320   41.7760   13.1790 C.3    30  LYS30       0.1093
     34  NZ        27.2410   42.9330   14.1200 N.3    30  LYS30      -0.1314
     35  N         18.9290   47.9340   18.3170 N.3    48  TYR48      -0.1241
     36  CA        18.5360   48.6540   17.1130 C.3    48  TYR48       0.1605
     37  C         17.0490   49.0090   17.1450 C.2    48  TYR48       0.2264
     38  O         16.6740   50.0970   16.7360 O.2    48  TYR48      -0.2867
     39  CB        18.8150   47.8310   15.8500 C.3    48  TYR48       0.0534
     40  CG        20.1850   47.9730   15.2390 C.ar   48  TYR48      -0.0201
     41  CD1       20.9900   46.8560   15.0290 C.ar   48  TYR48      -0.0009
     42  CD2       20.6840   49.2220   14.8310 C.ar   48  TYR48      -0.0009
     43  CE1       22.2380   46.9660   14.4360 C.ar   48  TYR48       0.0417
     44  CE2       21.9610   49.3310   14.2380 C.ar   48  TYR48       0.0417
     45  CZ        22.7090   48.1960   14.0400 C.ar   48  TYR48       0.1957
     46  OH        23.9500   48.2500   13.4550 O.3    48  TYR48      -0.2866
     47  N         21.3220   52.6950   10.6170 N.3    59  PRO59      -0.2116
     48  CA        20.8190   51.8160    9.5700 C.3    59  PRO59       0.1372
     49  C         19.3950   51.3500    9.8430 C.2    59  PRO59       0.2244
     50  O         19.0280   51.0850   10.9910 O.2    59  PRO59      -0.2868
     51  CB        21.7680   50.6250    9.6170 C.3    59  PRO59       0.0268
     52  CG        22.3950   50.6870   10.9600 C.3    59  PRO59       0.0207
     53  CD        22.4920   52.1230   11.2990 C.3    59  PRO59       0.0892
     54  N         19.5520   44.1960    7.4960 N.3    74  LEU74      -0.1231
     55  CA        19.4840   45.6380    7.6730 C.3    74  LEU74       0.1693
     56  C         20.0640   46.3500    6.4750 C.2    74  LEU74       0.2592
     57  O         20.6110   45.7310    5.5660 O.2    74  LEU74      -0.2718
     58  CB        20.1470   46.0690    8.9860 C.3    74  LEU74       0.0284
     59  CG        21.5230   45.6300    9.4330 C.3    74  LEU74       0.0019
     60  CD1       21.7790   46.1900   10.8610 C.3    74  LEU74       0.0001
     61  CD2       21.8400   44.1050    9.4190 C.3    74  LEU74       0.0001
     62  N         19.9310   47.6630    6.5030 N.am   75  GLU75      -0.1966
     63  CA        20.3860   48.5310    5.4260 C.3    75  GLU75       0.1733
     64  C         21.8680   48.3180    5.1190 C.2    75  GLU75       0.2616
     65  O         22.6960   48.2870    6.0320 O.2    75  GLU75      -0.2715
     66  CB        20.1440   49.9750    5.8340 C.3    75  GLU75       0.0429
     67  CG        20.4360   50.9970    4.7770 C.3    75  GLU75       0.1163
     68  CD        20.0210   52.3970    5.1950 C.2    75  GLU75       0.3649
     69  OE1       19.6940   52.5970    6.3790 O.co2  75  GLU75      -0.2457
     70  OE2       20.0400   53.2980    4.3350 O.co2  75  GLU75      -0.2457
     71  N         22.1840   48.2060    3.8200 N.am   76  LEU76      -0.1963
     72  CA        23.5450   48.0770    3.3370 C.3    76  LEU76       0.1728
     73  C         24.1990   49.4400    3.2280 C.2    76  LEU76       0.2616
     74  O         23.6260   50.3920    2.6380 O.2    76  LEU76      -0.2715
     75  CB        23.5370   47.3720    1.9780 C.3    76  LEU76       0.0311
     76  CG        24.8620   47.1010    1.3310 C.3    76  LEU76       0.0022
     77  CD1       25.6540   46.0520    2.1730 C.3    76  LEU76       0.0001
     78  CD2       24.6890   46.5810   -0.1250 C.3    76  LEU76       0.0001
     79  N         25.3680   49.5550    3.8520 N.am   77  LEU77      -0.1963
     80  CA        26.1060   50.8100    3.9260 C.3    77  LEU77       0.1728
     81  C         27.4340   50.7110    3.2110 C.2    77  LEU77       0.2617
     82  O         27.7870   49.6660    2.6850 O.2    77  LEU77      -0.2715
     83  CB        26.3220   51.2120    5.4080 C.3    77  LEU77       0.0311
     84  CG        25.0270   51.3040    6.2350 C.3    77  LEU77       0.0022
     85  CD1       25.3740   51.5100    7.7380 C.3    77  LEU77       0.0001
     86  CD2       24.1370   52.4370    5.7610 C.3    77  LEU77       0.0001
     87  N         28.1610   51.8260    3.1800 N.am   78  GLY78      -0.1941
     88  CA        29.5090   51.9010    2.6150 C.3    78  GLY78       0.1998
     89  C         30.6410   51.5270    3.5620 C.2    78  GLY78       0.2480
     90  O         30.4400   50.8320    4.5530 O.2    78  GLY78      -0.2729
     91  N         31.8640   51.9610    3.2380 N.am   79  PRO79      -0.2726
     92  CA        33.0250   51.6060    4.0480 C.3    79  PRO79       0.1402
     93  C         33.0660   52.3300    5.3660 C.2    79  PRO79       0.2269
     94  O         32.3650   53.3390    5.5750 O.2    79  PRO79      -0.2865
     95  CB        34.1910   52.0170    3.1550 C.3    79  PRO79       0.0296
     96  CG        33.6860   53.1640    2.3980 C.3    79  PRO79       0.0237
     97  CD        32.2530   52.8030    2.0880 C.3    79  PRO79       0.0939
     98  N         38.5190   52.1870    7.1020 N.3    83  ASP83      -0.1239
     99  CA        38.8230   51.8850    5.6870 C.3    83  ASP83       0.1674
    100  C         39.1510   53.1880    4.9360 C.2    83  ASP83       0.2266
    101  O         40.0890   53.2300    4.1190 O.2    83  ASP83      -0.2867
    102  CB        37.6010   51.2410    4.9940 C.3    83  ASP83       0.1410
    103  CG        37.1210   49.9530    5.6660 C.2    83  ASP83       0.3668
    104  OD1       37.9580   49.2020    6.2180 O.co2  83  ASP83      -0.2456
    105  OD2       35.9020   49.6570    5.6040 O.co2  83  ASP83      -0.2456
    106  N         36.1410   51.5010   12.9390 N.3   124  GLU124     -0.1245
    107  CA        35.5070   50.4120   12.1980 C.3   124  GLU124      0.1567
    108  C         33.9980   50.3960   12.3450 C.2   124  GLU124      0.2260
    109  O         33.3210   49.7580   11.5280 O.2   124  GLU124     -0.2867
    110  CB        36.0300   49.0670   12.6930 C.3   124  GLU124      0.0388
    111  CG        37.5040   48.7980   12.3580 C.3   124  GLU124      0.1160
    112  CD        38.5150   49.3570   13.3520 C.2   124  GLU124      0.3649
    113  OE1       38.1920   50.2470   14.1670 O.co2 124  GLU124     -0.2457
    114  OE2       39.6780   48.9030   13.2870 O.co2 124  GLU124     -0.2457
    115  N         30.2460   53.9700    9.5910 N.3   127  LEU127     -0.1245
    116  CA        30.2480   53.7340    8.1350 C.3   127  LEU127      0.1561
    117  C         29.5110   54.8430    7.4010 C.2   127  LEU127      0.2260
    118  O         28.4360   55.2970    7.8550 O.2   127  LEU127     -0.2867
    119  CB        29.5200   52.4240    7.8080 C.3   127  LEU127      0.0270
    120  CG        30.2840   51.0980    7.9340 C.3   127  LEU127      0.0019
    121  CD1       30.9490   50.8880    9.2730 C.3   127  LEU127      0.0001
    122  CD2       29.3220   49.9140    7.5890 C.3   127  LEU127      0.0001
    123  N         27.1190   51.7040   13.8070 N.3   142  ILE142     -0.1245
    124  CA        26.7250   50.3110   13.6960 C.3   142  ILE142      0.1561
    125  C         27.2850   49.5200   14.8930 C.2   142  ILE142      0.2260
    126  O         28.0690   50.0540   15.6880 O.2   142  ILE142     -0.2867
    127  CB        27.2010   49.6570   12.3560 C.3   142  ILE142      0.0252
    128  CG1       28.7330   49.5180   12.3030 C.3   142  ILE142      0.0019
    129  CG2       26.7380   50.4820   11.1590 C.3   142  ILE142      0.0019
    130  CD1       29.2410   48.4810   11.2710 C.3   142  ILE142      0.0001
    131  N         35.4780   52.3400   -2.0370 N.3   289  PRO289     -0.2102
    132  CA        34.9970   50.9760   -2.0650 C.3   289  PRO289      0.1504
    133  C         33.4660   50.8860   -2.0260 C.2   289  PRO289      0.2576
    134  O         32.8210   51.5810   -1.2290 O.2   289  PRO289     -0.2718
    135  CB        35.5980   50.3850   -0.7790 C.3   289  PRO289      0.0282
    136  CG        36.8000   51.1690   -0.5220 C.3   289  PRO289      0.0208
    137  CD        36.4420   52.5590   -0.9490 C.3   289  PRO289      0.0893
    138  N         32.8830   50.0380   -2.8700 N.am  290  THR290     -0.1940
    139  CA        31.4230   49.8470   -2.8670 C.3   290  THR290      0.2013
    140  C         31.0940   48.3810   -2.6760 C.2   290  THR290      0.2484
    141  O         31.7390   47.5190   -3.2770 O.2   290  THR290     -0.2729
    142  CB        30.6890   50.3870   -4.1390 C.3   290  THR290      0.1807
    143  OG1       29.8260   49.3740   -4.7160 O.3   290  THR290     -0.2208
    144  CG2       31.7210   50.7730   -5.1770 C.3   290  THR290      0.0379
    145  N         30.0920   48.0760   -1.8410 N.am  291  PRO291     -0.2726
    146  CA        29.7870   46.6730   -1.5930 C.3   291  PRO291      0.1402
    147  C         29.1770   45.9430   -2.7870 C.2   291  PRO291      0.2269
    148  O         29.2580   44.7240   -2.8480 O.2   291  PRO291     -0.2865
    149  CB        28.7950   46.7180   -0.4260 C.3   291  PRO291      0.0296
    150  CG        28.1910   48.0480   -0.4820 C.3   291  PRO291      0.0237
    151  CD        29.1730   48.9830   -1.1170 C.3   291  PRO291      0.0939
@<TRIPOS>BOND
     1   144   142    1
     2   143   142    1
     3   142   139    1
     4   141   140    2
     5   138   139    1
     6   138   133   am
     7   139   140    1
     8   148   147    2
     9   147   146    1
    10   140   145   am
    11   132   131    1
    12   132   133    1
    13   132   135    1
    14   131   137    1
    15   133   134    2
    16   145   146    1
    17   145   151    1
    18   146   149    1
    19   151   150    1
    20   137   136    1
    21   135   136    1
    22   150   149    1
    23    78    76    1
    24     7     5    1
    25    76    75    1
    26    76    77    1
    27     5     2    1
    28     5     6    1
    29     2     1    1
    30     2     3    1
    31    75    72    1
    32    97    96    1
    33    97    91    1
    34     8     6    1
    35    96    95    1
    36    88    87    1
    37    88    89    1
    38    74    73    2
    39    82    81    2
    40    95    92    1
    41    87    81   am
    42     3     4    2
    43     3     9   am
    44    81    80    1
    45    73    72    1
    46    73    79   am
    47    91    89   am
    48    91    92    1
    49    72    71    1
    50    89    90    2
    51    21    22    1
    52    71    64   am
    53    79    80    1
    54    80    83    1
    55    92    93    1
    56   101   100    2
    57     9    10    1
    58    16    15    2
    59    70    68   ar
    60    22    25    1
    61    22    23    1
    62    67    68    1
    63    67    66    1
    64   100    99    1
    65    15    14    1
    66   102   103    1
    67   102    99    1
    68    64    63    1
    69    64    65    2
    70    68    69   ar
    71    23    24    2
    72    93    94    2
    73    10    11    1
    74    83    84    1
    75    63    66    1
    76    63    62    1
    77    57    56    2
    78   105   103   ar
    79   103   104   ar
    80    99    98    1
    81    86    84    1
    82    20    18    1
    83    18    17    1
    84    18    19    1
    85    84    85    1
    86    11    12    2
    87    14    17    1
    88    14    13    1
    89    56    62   am
    90    56    55    1
    91   117   118    2
    92   117   116    1
    93    54    55    1
    94   122   120    1
    95    55    58    1
    96   119   120    1
    97   119   116    1
    98   120   121    1
    99   116   115    1
   100    26    27    1
   101    58    59    1
   102    27    28    1
   103    27    30    1
   104    61    59    1
   105    59    60    1
   106    48    51    1
   107    48    49    1
   108    48    47    1
   109    51    52    1
   110    49    50    2
   111    28    29    2
   112    30    31    1
   113    47    53    1
   114    52    53    1
   115   129   127    1
   116   130   128    1
   117    31    32    1
   118   109   108    2
   119   107   108    1
   120   107   110    1
   121   107   106    1
   122   128   127    1
   123    32    33    1
   124   127   124    1
   125   111   110    1
   126   111   112    1
   127    33    34    1
   128   114   112   ar
   129   112   113   ar
   130    46    45    1
   131   124   123    1
   132   124   125    1
   133    45    44   ar
   134    45    43   ar
   135    44    42   ar
   136    43    41   ar
   137    42    40   ar
   138   125   126    2
   139    41    40   ar
   140    40    39    1
   141    39    36    1
   142    38    37    2
   143    36    37    1
   144    36    35    1
