@<TRIPOS>MOLECULE
tmp/2cn0A01.pdb
 233 233 0 0 0
SMALL
GASTEIGER

@<TRIPOS>ATOM
      1  N         14.4130   -7.1560    9.0900 N.3    27  LEU27      -0.1231
      2  CA        15.5110   -7.5540    9.9360 C.3    27  LEU27       0.1693
      3  C         15.2750   -7.2310   11.3940 C.2    27  LEU27       0.2592
      4  O         15.5550   -8.0420   12.2780 O.2    27  LEU27      -0.2718
      5  CB        16.7780   -6.8680    9.5050 C.3    27  LEU27       0.0284
      6  CG        17.4440   -7.4590    8.2770 C.3    27  LEU27       0.0019
      7  CD1       18.7080   -6.6590    7.9880 C.3    27  LEU27       0.0001
      8  CD2       17.7340   -8.9600    8.4520 C.3    27  LEU27       0.0001
      9  N         14.7740   -6.0320   11.6630 N.am   28  CYS28      -0.1970
     10  CA        14.6810   -5.5310   13.0200 C.3    28  CYS28       0.1712
     11  C         13.8880   -4.2510   13.0360 C.2    28  CYS28       0.2296
     12  O         13.6380   -3.6720   11.9910 O.2    28  CYS28      -0.2864
     13  CB        16.0880   -5.2130   13.5640 C.3    28  CYS28       0.0983
     14  SG        16.9370   -6.5150   14.5110 S.3    28  CYS28      -0.0798
     15  N         22.6560   -6.2110   18.4070 N.3    43  HIS43      -0.1241
     16  CA        22.4720   -7.5870   17.9160 C.3    43  HIS43       0.1621
     17  C         21.7510   -7.6660   16.5900 C.2    43  HIS43       0.2264
     18  O         21.8240   -8.6860   15.9200 O.2    43  HIS43      -0.2867
     19  CB        21.7630   -8.4980   18.9020 C.3    43  HIS43       0.0745
     20  CG        20.2860   -8.2770   18.9950 C.ar   43  HIS43       0.0817
     21  ND1       19.7040   -7.5370   19.9910 N.ar   43  HIS43      -0.2268
     22  CD2       19.2800   -8.6370   18.1590 C.ar   43  HIS43       0.1154
     23  CE1       18.3960   -7.4970   19.7970 C.ar   43  HIS43       0.1986
     24  NE2       18.1130   -8.1450   18.6870 N.ar   43  HIS43      -0.2212
     25  N         25.9940  -10.2560   15.3990 N.3    47  TYR47      -0.1241
     26  CA        25.7960  -11.3500   16.3580 C.3    47  TYR47       0.1605
     27  C         26.5570  -12.5710   15.8160 C.2    47  TYR47       0.2264
     28  O         26.0150  -13.4290   15.1120 O.2    47  TYR47      -0.2867
     29  CB        24.3220  -11.6410   16.6140 C.3    47  TYR47       0.0534
     30  CG        24.1510  -12.5420   17.7990 C.ar   47  TYR47      -0.0201
     31  CD1       24.5960  -12.1520   19.0750 C.ar   47  TYR47      -0.0009
     32  CD2       23.6220  -13.8030   17.6690 C.ar   47  TYR47      -0.0009
     33  CE1       24.5210  -13.0090   20.1620 C.ar   47  TYR47       0.0417
     34  CE2       23.5150  -14.6440   18.7530 C.ar   47  TYR47       0.0417
     35  CZ        23.9850  -14.2590   20.0030 C.ar   47  TYR47       0.1957
     36  OH        23.9080  -15.1400   21.0670 O.3    47  TYR47      -0.2866
     37  N         25.5040  -16.4230   15.3980 N.3    50  TRP50      -0.1241
     38  CA        24.6160  -16.7730   14.2740 C.3    50  TRP50       0.1605
     39  C         25.1410  -16.2360   12.9530 C.2    50  TRP50       0.2264
     40  O         24.3780  -16.1120   11.9780 O.2    50  TRP50      -0.2867
     41  CB        23.2190  -16.2180   14.5040 C.3    50  TRP50       0.0550
     42  CG        22.5360  -16.7270   15.7340 C.ar   50  TRP50       0.0003
     43  CD1       22.9700  -17.7160   16.5670 C.ar   50  TRP50       0.0946
     44  CD2       21.2620  -16.3080   16.2440 C.ar   50  TRP50       0.0152
     45  NE1       22.0660  -17.9170   17.5820 N.ar   50  TRP50      -0.2442
     46  CE2       21.0070  -17.0670   17.4090 C.ar   50  TRP50       0.0810
     47  CE3       20.3210  -15.3500   15.8480 C.ar   50  TRP50       0.0012
     48  CZ2       19.8460  -16.9070   18.1700 C.ar   50  TRP50       0.0191
     49  CZ3       19.1670  -15.1960   16.6070 C.ar   50  TRP50       0.0001
     50  CH2       18.9450  -15.9750   17.7520 C.ar   50  TRP50       0.0015
     51  N         25.9010  -13.3100   12.0070 N.3    52  LYS52      -0.1245
     52  CA        25.2880  -12.0420   11.6110 C.3    52  LYS52       0.1561
     53  C         26.3060  -10.9280   11.6980 C.2    52  LYS52       0.2260
     54  O         26.8630  -10.6680   12.7570 O.2    52  LYS52      -0.2867
     55  CB        24.1170  -11.7400   12.5040 C.3    52  LYS52       0.0271
     56  CG        23.3810  -10.5160   12.0710 C.3    52  LYS52       0.0035
     57  CD        22.2640  -10.1850   13.0370 C.3    52  LYS52       0.0206
     58  CE        21.1150  -11.1480   12.8420 C.3    52  LYS52       0.1093
     59  NZ        19.9040  -10.6860   13.5490 N.3    52  LYS52      -0.1314
     60  N         28.3680   -9.4180   23.0490 N.3    92  TRP92      -0.1241
     61  CA        27.6930  -10.4660   22.2810 C.3    92  TRP92       0.1605
     62  C         28.1210  -11.8520   22.6860 C.2    92  TRP92       0.2264
     63  O         27.4030  -12.8020   22.3890 O.2    92  TRP92      -0.2867
     64  CB        27.9220  -10.3470   20.7700 C.3    92  TRP92       0.0550
     65  CG        29.2870  -10.3020   20.3450 C.ar   92  TRP92       0.0003
     66  CD1       30.0260   -9.1950   20.1350 C.ar   92  TRP92       0.0946
     67  CD2       30.1500  -11.4180   20.0610 C.ar   92  TRP92       0.0152
     68  NE1       31.2860   -9.5340   19.7370 N.ar   92  TRP92      -0.2442
     69  CE2       31.3800  -10.8970   19.6870 C.ar   92  TRP92       0.0810
     70  CE3       29.9830  -12.8090   20.0730 C.ar   92  TRP92       0.0012
     71  CZ2       32.4450  -11.7050   19.3120 C.ar   92  TRP92       0.0191
     72  CZ3       31.0610  -13.6170   19.6980 C.ar   92  TRP92       0.0001
     73  CH2       32.2630  -13.0600   19.3610 C.ar   92  TRP92       0.0015
     74  N         28.3530  -13.0650   25.8210 N.3    94  GLU94      -0.1231
     75  CA        27.7130  -13.5320   27.0330 C.3    94  GLU94       0.1699
     76  C         26.2270  -13.1830   27.1810 C.2    94  GLU94       0.2592
     77  O         25.3770  -14.0860   27.0920 O.2    94  GLU94      -0.2718
     78  CB        28.4540  -13.0150   28.2780 C.3    94  GLU94       0.0402
     79  CG        27.9310  -13.6430   29.5920 C.3    94  GLU94       0.1161
     80  CD        28.2240  -12.8370   30.8460 C.2    94  GLU94       0.3649
     81  OE1       29.0470  -11.8910   30.8080 O.co2  94  GLU94      -0.2457
     82  OE2       27.6180  -13.1680   31.8950 O.co2  94  GLU94      -0.2457
     83  N         25.9100  -11.9120   27.4730 N.am   95  ASN95      -0.1960
     84  CA        24.5810  -11.5060   27.9000 C.3    95  ASN95       0.1819
     85  C         24.0230  -10.2970   27.1800 C.2    95  ASN95       0.2621
     86  O         23.0790   -9.7060   27.6500 O.2    95  ASN95      -0.2715
     87  CB        24.6020  -11.2350   29.4060 C.3    95  ASN95       0.1195
     88  CG        25.5540  -10.1370   29.8050 C.2    95  ASN95       0.2630
     89  OD1       26.2840   -9.6020   28.9610 O.2    95  ASN95      -0.2716
     90  ND2       25.5550   -9.7640   31.1000 N.am   95  ASN95      -0.0877
     91  N         24.6290   -9.8950   26.0730 N.am   96  LEU96      -0.1977
     92  CA        24.1690   -8.7440   25.2890 C.3    96  LEU96       0.1596
     93  C         24.2440   -7.4420   26.0710 C.2    96  LEU96       0.2287
     94  O         23.4970   -6.5120   25.8200 O.2    96  LEU96      -0.2864
     95  CB        22.7610   -8.9770   24.7750 C.3    96  LEU96       0.0297
     96  CG        22.5560  -10.2720   24.0080 C.3    96  LEU96       0.0022
     97  CD1       21.0840  -10.4140   23.6810 C.3    96  LEU96       0.0001
     98  CD2       23.4500  -10.3260   22.7720 C.3    96  LEU96       0.0001
     99  N         20.5350  -15.9420   32.8190 N.3   172  ILE172     -0.1245
    100  CA        21.4500  -15.0040   32.2200 C.3   172  ILE172      0.1561
    101  C         21.7790  -13.8900   33.2310 C.2   172  ILE172      0.2260
    102  O         20.9280  -13.4560   34.0150 O.2   172  ILE172     -0.2867
    103  CB        20.8090  -14.4570   30.9280 C.3   172  ILE172      0.0252
    104  CG1       20.5860  -15.6000   29.9270 C.3   172  ILE172      0.0019
    105  CG2       21.6570  -13.3530   30.3440 C.3   172  ILE172      0.0019
    106  CD1       21.8370  -16.0560   29.2110 C.3   172  ILE172      0.0001
    107  N          4.3430   -9.1220   24.7080 N.3   192  ASP192     -0.1225
    108  CA         5.7860   -9.1500   24.6540 C.3   192  ASP192      0.1805
    109  C          6.1930   -8.7800   23.2410 C.2   192  ASP192      0.2598
    110  O          5.4110   -8.8710   22.2910 O.2   192  ASP192     -0.2718
    111  CB         6.2980  -10.5730   25.0060 C.3   192  ASP192      0.1424
    112  CG         7.7690  -10.6410   25.3670 C.2   192  ASP192      0.3668
    113  OD1        8.4550   -9.5850   25.4950 O.co2 192  ASP192     -0.2456
    114  OD2        8.2750  -11.7940   25.4880 O.co2 192  ASP192     -0.2456
    115  N          7.4470   -8.3650   23.1150 N.am  193  ALA193     -0.1966
    116  CA         8.0990   -8.2970   21.8190 C.3   193  ALA193      0.1728
    117  C          8.4500   -9.7050   21.3470 C.2   193  ALA193      0.2616
    118  O          8.4250  -10.6590   22.1430 O.2   193  ALA193     -0.2715
    119  CB         9.3400   -7.4730   21.9410 C.3   193  ALA193      0.0334
    120  N          8.7680   -9.8620   20.0590 N.am  194  CYS194     -0.1954
    121  CA         9.1700  -11.1490   19.5100 C.3   194  CYS194      0.1843
    122  C         10.0940  -10.9410   18.3240 C.2   194  CYS194      0.2625
    123  O         10.4880   -9.8210   18.0120 O.2   194  CYS194     -0.2714
    124  CB         7.9410  -11.9540   19.1100 C.3   194  CYS194      0.0997
    125  SG         8.1410  -13.7840   19.1440 S.3   194  CYS194     -0.0797
    126  N         10.4700  -12.0340   17.6740 N.am  195  GLU195     -0.1963
    127  CA        11.3300  -11.9670   16.5100 C.3   195  GLU195      0.1733
    128  C         10.7790  -10.9670   15.4940 C.2   195  GLU195      0.2616
    129  O          9.6130  -11.0480   15.1020 O.2   195  GLU195     -0.2715
    130  CB        11.4500  -13.3480   15.8690 C.3   195  GLU195      0.0429
    131  CG        12.3110  -13.3810   14.6230 C.3   195  GLU195      0.1163
    132  CD        12.6140  -14.7870   14.1640 C.2   195  GLU195      0.3649
    133  OE1       12.0050  -15.7420   14.6920 O.co2 195  GLU195     -0.2457
    134  OE2       13.4720  -14.9360   13.2730 O.co2 195  GLU195     -0.2457
    135  N         11.6270  -10.0510   15.0620 N.am  196  GLY196     -0.1955
    136  CA        11.2590   -8.9850   14.1530 C.3   196  GLY196      0.1869
    137  C         11.1100   -7.6440   14.8190 C.2   196  GLY196      0.2309
    138  O         11.1900   -6.6000   14.1500 O.2   196  GLY196     -0.2863
    139  N         12.9610   -6.7860   17.6040 N.3   198  SER198     -0.1217
    140  CA        14.1350   -6.3620   18.3380 C.3   198  SER198      0.1889
    141  C         14.8090   -5.1900   17.6820 C.2   198  SER198      0.2288
    142  O         14.6560   -4.9430   16.4880 O.2   198  SER198     -0.2866
    143  CB        15.0210   -7.4920   18.7640 C.3   198  SER198      0.2089
    144  OG        15.6090   -8.0810   17.6720 O.3   198  SER198     -0.2183
    145  N         14.4000   -2.8680   22.5190 N.3   218  VAL218     -0.1231
    146  CA        14.0950   -4.3130   22.6410 C.3   218  VAL218      0.1692
    147  C         15.4070   -5.0800   22.3960 C.2   218  VAL218      0.2593
    148  O         15.9860   -5.0220   21.3170 O.2   218  VAL218     -0.2718
    149  CB        13.0680   -4.7210   21.5870 C.3   218  VAL218      0.0266
    150  CG1       12.8230   -6.1910   21.6340 C.3   218  VAL218      0.0020
    151  CG2       11.7380   -3.9650   21.7910 C.3   218  VAL218      0.0020
    152  N         15.8700   -5.7740   23.4220 N.am  219  SER219     -0.1938
    153  CA        17.1720   -6.4150   23.3840 C.3   219  SER219      0.2055
    154  C         17.0780   -7.9410   23.3620 C.2   219  SER219      0.2643
    155  O         17.6320   -8.5620   22.4180 O.2   219  SER219     -0.2714
    156  CB        18.0120   -5.9190   24.5520 C.3   219  SER219      0.2130
    157  OG        19.2820   -6.5460   24.5630 O.3   219  SER219     -0.2179
    158  N         16.4610   -8.5860   24.3580 N.am  220  TRP220     -0.1959
    159  CA        16.4920  -10.0430   24.3680 C.3   220  TRP220      0.1771
    160  C         15.3980  -10.6210   25.2010 C.2   220  TRP220      0.2620
    161  O         14.7310   -9.9260   25.9680 O.2   220  TRP220     -0.2715
    162  CB        17.8810  -10.5700   24.7900 C.3   220  TRP220      0.0590
    163  CG        18.2940  -10.2440   26.2180 C.ar  220  TRP220      0.0006
    164  CD1       18.9720   -9.1520   26.6350 C.ar  220  TRP220      0.0946
    165  CD2       18.1390  -11.0710   27.3710 C.ar  220  TRP220      0.0152
    166  NE1       19.2530   -9.2200   27.9620 N.ar  220  TRP220     -0.2442
    167  CE2       18.7390  -10.3910   28.4460 C.ar  220  TRP220      0.0810
    168  CE3       17.5620  -12.3270   27.6000 C.ar  220  TRP220      0.0012
    169  CZ2       18.7670  -10.9240   29.7440 C.ar  220  TRP220      0.0191
    170  CZ3       17.6050  -12.8500   28.8730 C.ar  220  TRP220      0.0001
    171  CH2       18.1840  -12.1380   29.9260 C.ar  220  TRP220      0.0015
    172  N         15.1880  -11.8960   25.0160 N.am  221  GLY221     -0.1940
    173  CA        14.2530  -12.6300   25.8170 C.3   221  GLY221      0.2014
    174  C         14.4360  -14.0870   25.5790 C.2   221  GLY221      0.2639
    175  O         15.3190  -14.4990   24.8510 O.2   221  GLY221     -0.2714
    176  N         13.6260  -14.8720   26.2600 N.am  222  GLU222     -0.1963
    177  CA        13.6760  -16.3180   26.1060 C.3   222  GLU222      0.1733
    178  C         12.2840  -16.7310   25.7110 C.2   222  GLU222      0.2617
    179  O         11.3510  -16.6430   26.4890 O.2   222  GLU222     -0.2715
    180  CB        14.1920  -16.9280   27.3980 C.3   222  GLU222      0.0429
    181  CG        15.6760  -16.5970   27.5890 C.3   222  GLU222      0.1163
    182  CD        16.2590  -17.0250   28.9290 C.2   222  GLU222      0.3649
    183  OE1       15.8500  -16.4660   29.9660 O.co2 222  GLU222     -0.2457
    184  OE2       17.1580  -17.8980   28.9300 O.co2 222  GLU222     -0.2457
    185  N         12.1420  -17.0810   24.4420 N.am  223  GLY223     -0.1940
    186  CA        10.8280  -17.2700   23.8580 C.3   223  GLY223      0.2014
    187  C         10.1620  -15.9260   23.6910 C.2   223  GLY223      0.2639
    188  O         10.8390  -14.8990   23.6500 O.2   223  GLY223     -0.2714
    189  N          8.8380  -15.9360   23.5840 N.am  224  CYS224     -0.1967
    190  CA         8.0540  -14.7030   23.5340 C.3   224  CYS224      0.1712
    191  C          6.7550  -14.9210   24.2870 C.2   224  CYS224      0.2296
    192  O          6.0710  -15.9090   24.0800 O.2   224  CYS224     -0.2864
    193  CB         7.7370  -14.3300   22.0820 C.3   224  CYS224      0.0983
    194  SG         9.1170  -14.2370   20.9230 S.3   224  CYS224     -0.0798
    195  N         10.2580  -12.4370   31.0510 N.3   230  TYR230     -0.1227
    196  CA        10.1300  -11.0090   30.7960 C.3   230  TYR230      0.1736
    197  C         11.0310  -10.6090   29.6630 C.2   230  TYR230      0.2596
    198  O         12.0810  -11.2080   29.4490 O.2   230  TYR230     -0.2718
    199  CB        10.5010  -10.1840   32.0500 C.3   230  TYR230      0.0548
    200  CG         9.6250  -10.6040   33.2060 C.ar  230  TYR230     -0.0200
    201  CD1        8.3470  -10.0930   33.3330 C.ar  230  TYR230     -0.0009
    202  CD2       10.0200  -11.5760   34.0920 C.ar  230  TYR230     -0.0009
    203  CE1        7.4950  -10.5210   34.3210 C.ar  230  TYR230      0.0417
    204  CE2        9.1720  -12.0330   35.1060 C.ar  230  TYR230      0.0417
    205  CZ         7.9150  -11.4800   35.2220 C.ar  230  TYR230      0.1957
    206  OH         7.0430  -11.9130   36.2010 O.3   230  TYR230     -0.2866
    207  N         10.6150   -9.5980   28.9540 N.am  231  GLY231     -0.1942
    208  CA        11.4800   -9.0500   27.9230 C.3   231  GLY231      0.2014
    209  C         12.5430   -8.1710   28.5410 C.2   231  GLY231      0.2639
    210  O         12.2430   -7.4490   29.4940 O.2   231  GLY231     -0.2714
    211  N         13.7430   -8.1770   27.9770 N.am  232  PHE232     -0.1959
    212  CA        14.8320   -7.3350   28.4410 C.3   232  PHE232      0.1771
    213  C         15.1350   -6.2530   27.4000 C.2   232  PHE232      0.2619
    214  O         15.0100   -6.4640   26.1890 O.2   232  PHE232     -0.2715
    215  CB        16.0480   -8.1750   28.7630 C.3   232  PHE232      0.0574
    216  CG        15.9040   -8.9230   30.0540 C.ar  232  PHE232     -0.0200
    217  CD1       15.1610  -10.0700   30.1360 C.ar  232  PHE232     -0.0042
    218  CD2       16.4660   -8.4020   31.2020 C.ar  232  PHE232     -0.0042
    219  CE1       15.0150  -10.7210   31.3660 C.ar  232  PHE232     -0.0003
    220  CE2       16.3390   -9.0260   32.3950 C.ar  232  PHE232     -0.0003
    221  CZ        15.6040  -10.1750   32.4860 C.ar  232  PHE232     -0.0000
    222  N         15.4660   -5.0770   27.9210 N.am  233  TYR233     -0.1974
    223  CA        15.5920   -3.8570   27.1760 C.3   233  TYR233      0.1639
    224  C         16.8980   -3.1980   27.5430 C.2   233  TYR233      0.2290
    225  O         17.2970   -3.1740   28.6930 O.2   233  TYR233     -0.2864
    226  CB        14.4360   -2.9070   27.4820 C.3   233  TYR233      0.0560
    227  CG        13.1050   -3.4940   27.0960 C.ar  233  TYR233     -0.0198
    228  CD1       12.4810   -4.4180   27.9100 C.ar  233  TYR233     -0.0009
    229  CD2       12.5140   -3.2000   25.8970 C.ar  233  TYR233     -0.0009
    230  CE1       11.2910   -5.0010   27.5330 C.ar  233  TYR233      0.0417
    231  CE2       11.3220   -3.8100   25.5110 C.ar  233  TYR233      0.0417
    232  CZ        10.7350   -4.6950   26.3260 C.ar  233  TYR233      0.1957
    233  OH         9.5630   -5.2970   25.8820 O.3   233  TYR233     -0.2866
@<TRIPOS>BOND
     1     7     6    1
     2     6     8    1
     3     6     5    1
     4     1     2    1
     5     5     2    1
     6     2     3    1
     7     3     9   am
     8     3     4    2
     9    52    53    1
    10    52    51    1
    11    52    55    1
    12     9    10    1
    13    53    54    2
    14    40    39    2
    15    12    11    2
    16    56    55    1
    17    56    57    1
    18    58    57    1
    19    58    59    1
    20    39    38    1
    21    10    11    1
    22    10    13    1
    23   134   132   ar
    24    13    14    1
    25   138   137    2
    26   136   137    1
    27   136   135    1
    28   132   131    1
    29   132   133   ar
    30    38    41    1
    31    38    37    1
    32    41    42    1
    33   131   130    1
    34   135   128   am
    35   129   128    2
    36    28    27    2
    37    25    26    1
    38   128   127    1
    39    42    44   ar
    40    42    43   ar
    41    27    26    1
    42    47    44   ar
    43    47    49   ar
    44   130   127    1
    45    18    17    2
    46    44    46   ar
    47    26    29    1
    48   142   141    2
    49   127   126    1
    50    43    45   ar
    51    17    16    1
    52    49    50   ar
    53    29    30    1
    54    46    45   ar
    55    46    48   ar
    56   139   140    1
    57    32    30   ar
    58    32    34   ar
    59   144   143    1
    60   126   122   am
    61   141   140    1
    62    50    48   ar
    63    30    31   ar
    64    16    15    1
    65    16    19    1
    66   123   122    2
    67    22    24   ar
    68    22    20   ar
    69   122   121    1
    70   140   143    1
    71    24    23   ar
    72    34    35   ar
    73    19    20    1
    74    20    21   ar
    75    31    33   ar
    76   124   125    1
    77   124   121    1
    78   125   194    1
    79    71    73   ar
    80    71    69   ar
    81    73    72   ar
    82   121   120    1
    83    69    68   ar
    84    69    67   ar
    85    72    70   ar
    86    68    66   ar
    87    23    21   ar
    88    35    33   ar
    89    35    36    1
    90   120   117   am
    91    67    70   ar
    92    67    65   ar
    93    66    65   ar
    94    65    64    1
    95    64    61    1
    96   194   193    1
    97   148   147    2
    98   117   116    1
    99   117   118    2
   100   149   150    1
   101   149   151    1
   102   149   146    1
   103   116   119    1
   104   116   115    1
   105   193   190    1
   106    61    62    1
   107    61    60    1
   108   110   109    2
   109    63    62    2
   110   147   146    1
   111   147   152   am
   112   155   154    2
   113   145   146    1
   114    98    96    1
   115   115   109   am
   116   109   108    1
   117   154   153    1
   118   154   158   am
   119   153   152    1
   120   153   156    1
   121   190   189    1
   122   190   191    1
   123   189   187   am
   124   188   187    2
   125    97    96    1
   126   187   186    1
   127   186   185    1
   128    96    95    1
   129   192   191    2
   130   158   159    1
   131   159   162    1
   132   159   160    1
   133   185   178   am
   134   156   157    1
   135   108   107    1
   136   108   111    1
   137    95    92    1
   138   162   163    1
   139   175   174    2
   140   111   112    1
   141   172   160   am
   142   172   173    1
   143   160   161    2
   144    92    93    1
   145    92    91    1
   146   112   114   ar
   147   112   113   ar
   148   231   229   ar
   149   231   232   ar
   150   174   173    1
   151   174   176   am
   152   178   177    1
   153   178   179    2
   154    94    93    2
   155    74    75    1
   156   233   232    1
   157   229   227   ar
   158    91    85   am
   159   177   176    1
   160   177   180    1
   161   214   213    2
   162   163   164   ar
   163   163   165   ar
   164   232   230   ar
   165   164   166   ar
   166    75    76    1
   167    75    78    1
   168    77    76    2
   169   227   226    1
   170   227   228   ar
   171   223   226    1
   172   223   224    1
   173   223   222    1
   174    85    86    2
   175    85    84    1
   176    76    83   am
   177   165   168   ar
   178   165   167   ar
   179   180   181    1
   180   213   222   am
   181   213   212    1
   182    83    84    1
   183   230   228   ar
   184   224   225    2
   185   181   182    1
   186   168   170   ar
   187    84    87    1
   188   208   209    1
   189   208   207    1
   190   166   167   ar
   191   211   212    1
   192   211   209   am
   193    78    79    1
   194   212   215    1
   195   167   169   ar
   196   209   210    2
   197   215   216    1
   198   170   171   ar
   199   182   184   ar
   200   182   183   ar
   201   207   197   am
   202    89    88    2
   203   106   104    1
   204    87    88    1
   205   198   197    2
   206    79    80    1
   207   197   196    1
   208   169   171   ar
   209    88    90   am
   210   104   103    1
   211   216   217   ar
   212   216   218   ar
   213   217   219   ar
   214   105   103    1
   215   196   195    1
   216   196   199    1
   217    81    80   ar
   218    80    82   ar
   219   103   100    1
   220   218   220   ar
   221   219   221   ar
   222   199   200    1
   223   100    99    1
   224   100   101    1
   225   220   221   ar
   226   200   201   ar
   227   200   202   ar
   228   101   102    2
   229   201   203   ar
   230   202   204   ar
   231   203   205   ar
   232   204   205   ar
   233   205   206    1
