@<TRIPOS>MOLECULE
tmp/2cn0A00.pdb
 106 102 0 0 0
SMALL
GASTEIGER

@<TRIPOS>ATOM
      1  N         11.8030    0.6650   10.2510 N.3    17  MET17      -0.1245
      2  CA        11.9890   -0.7100    9.8370 C.3    17  MET17       0.1570
      3  C         13.3750   -0.8460    9.2420 C.2    17  MET17       0.2261
      4  O         13.7160   -0.1150    8.3490 O.2    17  MET17      -0.2867
      5  CB        10.9500   -1.1000    8.7900 C.3    17  MET17       0.0387
      6  CG        11.1550   -2.4760    8.2520 C.3    17  MET17       0.0595
      7  SD         9.9880   -2.9520    6.9670 S.3    17  MET17      -0.1393
      8  CE         8.4830   -3.0410    7.8990 C.3    17  MET17       0.0692
      9  N         15.5050   -3.0390    6.9180 N.3    19  PHE19      -0.1241
     10  CA        15.0280   -3.8700    5.8250 C.3    19  PHE19       0.1605
     11  C         16.2430   -4.4270    5.1200 C.2    19  PHE19       0.2264
     12  O         17.0840   -3.6670    4.6320 O.2    19  PHE19      -0.2867
     13  CB        14.1920   -3.0180    4.8670 C.3    19  PHE19       0.0534
     14  CG        13.4770   -3.7960    3.8160 C.ar   19  PHE19      -0.0203
     15  CD1       12.4400   -4.6510    4.1400 C.ar   19  PHE19      -0.0042
     16  CD2       13.8130   -3.6390    2.5040 C.ar   19  PHE19      -0.0042
     17  CE1       11.7870   -5.3550    3.1660 C.ar   19  PHE19      -0.0003
     18  CE2       13.1390   -4.3360    1.5280 C.ar   19  PHE19      -0.0003
     19  CZ        12.1230   -5.1930    1.8870 C.ar   19  PHE19      -0.0000
     20  N         14.8850   -9.6980    0.3920 N.3    24  GLN24      -0.1231
     21  CA        14.0380   -8.6430    0.9560 C.3    24  GLN24       0.1698
     22  C         13.2980   -9.1970    2.1570 C.2    24  GLN24       0.2592
     23  O         12.4280  -10.0480    2.0040 O.2    24  GLN24      -0.2718
     24  CB        13.0150   -8.1240   -0.0720 C.3    24  GLN24       0.0381
     25  CG        13.5800   -7.1100   -1.0770 C.3    24  GLN24       0.0905
     26  CD        12.5250   -6.1780   -1.6910 C.2    24  GLN24       0.2608
     27  OE1       12.8670   -5.2490   -2.4230 O.2    24  GLN24      -0.2717
     28  NE2       11.2480   -6.4080   -1.3810 N.am   24  GLN24      -0.0878
     29  N         13.6230   -8.7120    3.3530 N.am   25  GLU25      -0.1966
     30  CA        12.9570   -9.2080    4.5410 C.3    25  GLU25       0.1733
     31  C         13.1230   -8.2160    5.7040 C.2    25  GLU25       0.2616
     32  O         14.0150   -7.3740    5.6810 O.2    25  GLU25      -0.2715
     33  CB        13.4890  -10.5980    4.9040 C.3    25  GLU25       0.0429
     34  CG        14.9630  -10.6430    5.2650 C.3    25  GLU25       0.1163
     35  CD        15.4400  -12.0410    5.6600 C.2    25  GLU25       0.3649
     36  OE1       14.8550  -13.0310    5.1750 O.co2  25  GLU25      -0.2457
     37  OE2       16.4000  -12.1430    6.4600 O.co2  25  GLU25      -0.2457
     38  N         12.2390   -8.3090    6.6980 N.am   26  LEU26      -0.1977
     39  CA        12.3400   -7.5240    7.9350 C.3    26  LEU26       0.1596
     40  C         13.4980   -8.0400    8.7320 C.2    26  LEU26       0.2287
     41  O         13.5590   -9.2250    9.0400 O.2    26  LEU26      -0.2864
     42  CB        11.0740   -7.6810    8.7720 C.3    26  LEU26       0.0297
     43  CG        11.0810   -7.1100   10.2020 C.3    26  LEU26       0.0022
     44  CD1       11.2140   -5.5990   10.1780 C.3    26  LEU26       0.0001
     45  CD2        9.8040   -7.5060   10.9140 C.3    26  LEU26       0.0001
     46  N         13.4930    2.1050    6.5030 N.3    62  ARG62      -0.1245
     47  CA        12.1650    2.5270    6.0050 C.3    62  ARG62       0.1563
     48  C         11.4200    3.2030    7.1490 C.2    62  ARG62       0.2260
     49  O         11.2180    2.6110    8.1950 O.2    62  ARG62      -0.2867
     50  CB        11.3810    1.3380    5.4650 C.3    62  ARG62       0.0307
     51  CG        12.1470    0.5750    4.3590 C.3    62  ARG62       0.0489
     52  CD        11.4820   -0.6890    3.8800 C.3    62  ARG62       0.2205
     53  NE        10.2430   -0.3910    3.1710 N.pl3  62  ARG62      -0.0865
     54  CZ         9.5270   -1.2800    2.5020 C.cat  62  ARG62       0.5346
     55  NH1        9.9390   -2.5360    2.3920 N.pl3  62  ARG62       0.1354
     56  NH2        8.4010   -0.8950    1.9370 N.pl3  62  ARG62       0.1354
     57  N          3.1380   -3.6130    7.1040 N.3    68  ARG68      -0.1231
     58  CA         4.3990   -4.3560    7.1500 C.3    68  ARG68       0.1694
     59  C          4.9850   -4.5090    5.7550 C.2    68  ARG68       0.2593
     60  O          6.1490   -4.1860    5.5140 O.2    68  ARG68      -0.2718
     61  CB         4.2070   -5.7450    7.7630 C.3    68  ARG68       0.0321
     62  CG         5.5100   -6.5730    7.9140 C.3    68  ARG68       0.0489
     63  CD         5.2700   -7.8320    8.7050 C.3    68  ARG68       0.2205
     64  NE         4.2810   -8.6740    8.0390 N.pl3  68  ARG68      -0.0865
     65  CZ         4.5510   -9.5840    7.1130 C.cat  68  ARG68       0.5346
     66  NH1        5.7870   -9.7860    6.6850 N.pl3  68  ARG68       0.1354
     67  NH2        3.5460  -10.2610    6.5560 N.pl3  68  ARG68       0.1354
     68  N          4.1770   -5.0180    4.8290 N.am   69  THR69      -0.1939
     69  CA         4.7320   -5.4840    3.5380 C.3    69  THR69       0.2028
     70  C          4.5850   -4.5310    2.3500 C.2    69  THR69       0.2642
     71  O          5.3050   -4.6710    1.3420 O.2    69  THR69      -0.2714
     72  CB         4.1230   -6.8280    3.1160 C.3    69  THR69       0.1808
     73  OG1        2.7000   -6.7030    3.0420 O.3    69  THR69      -0.2208
     74  CG2        4.5040   -7.9190    4.0850 C.3    69  THR69       0.0379
     75  N          3.6330   -3.6220    2.4190 N.am   70  ARG70      -0.1963
     76  CA         3.3570   -2.7420    1.2930 C.3    70  ARG70       0.1729
     77  C          4.4030   -1.6620    1.1460 C.2    70  ARG70       0.2616
     78  O          4.9440   -1.1780    2.1560 O.2    70  ARG70      -0.2715
     79  CB         2.0060   -2.0660    1.4940 C.3    70  ARG70       0.0348
     80  CG         0.8950   -3.0330    1.0210 C.3    70  ARG70       0.0492
     81  CD        -0.4630   -2.3940    1.3240 C.3    70  ARG70       0.2205
     82  NE        -0.5980   -1.1390    0.5400 N.pl3  70  ARG70      -0.0865
     83  CZ        -0.5510    0.0890    1.1180 C.cat  70  ARG70       0.5346
     84  NH1       -0.4650    0.2470    2.4280 N.pl3  70  ARG70       0.1354
     85  NH2       -0.6700    1.0950    0.2060 N.pl3  70  ARG70       0.1354
     86  N          4.6430   -1.2450   -0.0950 N.am   71  TYR71      -0.1974
     87  CA         5.4040   -0.0460   -0.3460 C.3    71  TYR71       0.1639
     88  C          4.3880    1.0850   -0.1940 C.2    71  TYR71       0.2290
     89  O          3.4470    1.2000   -0.9640 O.2    71  TYR71      -0.2864
     90  CB         6.1330   -0.0170   -1.7020 C.3    71  TYR71       0.0560
     91  CG         6.7320    1.3560   -1.9360 C.ar   71  TYR71      -0.0198
     92  CD1        7.7510    1.8350   -1.1260 C.ar   71  TYR71      -0.0009
     93  CD2        6.2560    2.1900   -2.9600 C.ar   71  TYR71      -0.0009
     94  CE1        8.2860    3.0910   -1.3110 C.ar   71  TYR71       0.0417
     95  CE2        6.7960    3.4680   -3.1420 C.ar   71  TYR71       0.0417
     96  CZ         7.7940    3.9130   -2.2870 C.ar   71  TYR71       0.1957
     97  OH         8.3420    5.1610   -2.4270 O.3    71  TYR71      -0.2866
     98  N          2.5080  -13.3590   10.9500 N.3   149  GLN149     -0.1245
     99  CA         3.0730  -12.0150   10.8120 C.3   149  GLN149      0.1566
    100  C          1.9400  -10.9990   10.6190 C.2   149  GLN149      0.2260
    101  O          0.9420  -11.3060    9.9820 O.2   149  GLN149     -0.2867
    102  CB         4.0480  -11.9570    9.6330 C.3   149  GLN149      0.0367
    103  CG         5.0640  -13.1170    9.6000 C.3   149  GLN149      0.0905
    104  CD         6.3340  -12.7770    8.8410 C.2   149  GLN149      0.2608
    105  OE1        6.5560  -13.2610    7.7330 O.2   149  GLN149     -0.2717
    106  NE2        7.1730  -11.9380    9.4350 N.am  149  GLN149     -0.0878
@<TRIPOS>BOND
     1    95    93   ar
     2    95    96   ar
     3    93    91   ar
     4    97    96    1
     5    27    26    2
     6    96    94   ar
     7    91    90    1
     8    91    92   ar
     9    90    87    1
    10    26    28   am
    11    26    25    1
    12    94    92   ar
    13    25    24    1
    14    89    88    2
    15    87    88    1
    16    87    86    1
    17    86    77   am
    18    24    21    1
    19    85    83    1
    20    20    21    1
    21    82    83    2
    22    82    81    1
    23    21    22    1
    24    80    81    1
    25    80    79    1
    26    83    84    1
    27    77    76    1
    28    77    78    2
    29    76    79    1
    30    76    75    1
    31    71    70    2
    32    18    19   ar
    33    18    16   ar
    34    19    17   ar
    35    56    54    1
    36    23    22    2
    37    22    29   am
    38    70    75   am
    39    70    69    1
    40    55    54    1
    41    54    53    2
    42    16    14   ar
    43    73    72    1
    44    72    69    1
    45    72    74    1
    46    17    15   ar
    47    53    52    1
    48    29    30    1
    49    69    68    1
    50    14    15   ar
    51    14    13    1
    52    52    51    1
    53    51    50    1
    54    30    33    1
    55    30    31    1
    56    12    11    2
    57    68    59   am
    58    13    10    1
    59    33    34    1
    60    11    10    1
    61    36    35   ar
    62    34    35    1
    63    50    47    1
    64    60    59    2
    65    35    37   ar
    66    32    31    2
    67    31    38   am
    68    59    58    1
    69    10     9    1
    70    47    46    1
    71    47    48    1
    72    67    65    1
    73    66    65    1
    74    38    39    1
    75     7     8    1
    76     7     6    1
    77    57    58    1
    78    65    64    2
    79    48    49    2
    80    58    61    1
    81   105   104    2
    82    61    62    1
    83    62    63    1
    84    39    40    1
    85    39    42    1
    86    64    63    1
    87     6     5    1
    88     4     3    2
    89    40    41    2
    90    42    43    1
    91     5     2    1
    92   104   106   am
    93   104   103    1
    94     3     2    1
    95   103   102    1
    96   102    99    1
    97     2     1    1
    98   101   100    2
    99    44    43    1
   100    43    45    1
   101   100    99    1
   102    99    98    1
