@<TRIPOS>MOLECULE
tmp/2cn3B00.pdb
 258 254 0 0 0
SMALL
GASTEIGER

@<TRIPOS>ATOM
      1  N        -39.3790  -18.6600   34.9060 N.3    18  GLY18      -0.1210
      2  CA       -40.1190  -17.7830   34.0090 C.3    18  GLY18       0.1956
      3  C        -39.3830  -16.4880   33.7370 C.2    18  GLY18       0.2611
      4  O        -38.2140  -16.3330   34.0980 O.2    18  GLY18      -0.2717
      5  N        -40.0810  -15.5510   33.1040 N.am   19  PHE19      -0.1976
      6  CA       -39.5070  -14.2770   32.7030 C.3    19  PHE19       0.1639
      7  C        -39.7620  -13.2140   33.7770 C.2    19  PHE19       0.2290
      8  O        -40.9180  -12.8730   34.0740 O.2    19  PHE19      -0.2864
      9  CB       -40.1210  -13.8670   31.3460 C.3    19  PHE19       0.0560
     10  CG       -39.5740  -12.5890   30.7630 C.ar   19  PHE19      -0.0200
     11  CD1      -38.2090  -12.2970   30.8070 C.ar   19  PHE19      -0.0042
     12  CD2      -40.4270  -11.7020   30.1070 C.ar   19  PHE19      -0.0042
     13  CE1      -37.7030  -11.1170   30.2440 C.ar   19  PHE19      -0.0003
     14  CE2      -39.9360  -10.5210   29.5290 C.ar   19  PHE19      -0.0003
     15  CZ       -38.5660  -10.2320   29.5990 C.ar   19  PHE19      -0.0000
     16  N        -42.7850   -5.4680   27.9460 N.3   126  ARG126     -0.1245
     17  CA       -42.7540   -5.4150   29.4150 C.3   126  ARG126      0.1563
     18  C        -41.3660   -5.2790   30.0610 C.2   126  ARG126      0.2260
     19  O        -41.2620   -4.8530   31.2160 O.2   126  ARG126     -0.2867
     20  CB       -43.5310   -6.5800   30.0280 C.3   126  ARG126      0.0307
     21  CG       -43.0050   -7.9760   29.6990 C.3   126  ARG126      0.0489
     22  CD       -44.0690   -8.9840   30.0780 C.3   126  ARG126      0.2205
     23  NE       -43.7790  -10.3560   29.6700 N.pl3 126  ARG126     -0.0865
     24  CZ       -44.0270  -10.8410   28.4550 C.cat 126  ARG126      0.5346
     25  NH1      -43.7490  -12.1120   28.1810 N.pl3 126  ARG126      0.1354
     26  NH2      -44.5480  -10.0560   27.5110 N.pl3 126  ARG126      0.1354
     27  N        -39.7330  -11.1590   22.5330 N.3   263  TYR263     -0.1227
     28  CA       -39.4550  -12.3770   21.7550 C.3   263  TYR263      0.1736
     29  C        -38.7980  -12.1500   20.3960 C.2   263  TYR263      0.2595
     30  O        -38.3880  -13.1060   19.7280 O.2   263  TYR263     -0.2718
     31  CB       -40.7440  -13.1750   21.5280 C.3   263  TYR263      0.0548
     32  CG       -41.4320  -13.6140   22.7960 C.ar  263  TYR263     -0.0200
     33  CD1      -42.6340  -13.0220   23.1960 C.ar  263  TYR263     -0.0009
     34  CD2      -40.8820  -14.6150   23.6000 C.ar  263  TYR263     -0.0009
     35  CE1      -43.2770  -13.4190   24.3720 C.ar  263  TYR263      0.0417
     36  CE2      -41.5210  -15.0270   24.7720 C.ar  263  TYR263      0.0417
     37  CZ       -42.7130  -14.4220   25.1500 C.ar  263  TYR263      0.1957
     38  OH       -43.3350  -14.8180   26.3080 O.3   263  TYR263     -0.2866
     39  N        -38.7080  -10.8930   19.9790 N.am  264  ASP264     -0.1960
     40  CA       -38.3410  -10.5940   18.5980 C.3   264  ASP264      0.1840
     41  C        -36.9290  -11.0050   18.2050 C.2   264  ASP264      0.2623
     42  O        -36.0170  -11.0240   19.0300 O.2   264  ASP264     -0.2715
     43  CB       -38.5950   -9.1260   18.2870 C.3   264  ASP264      0.1450
     44  CG       -40.0330   -8.7370   18.5400 C.2   264  ASP264      0.3671
     45  OD1      -40.3610   -8.4110   19.7020 O.co2 264  ASP264     -0.2456
     46  OD2      -40.8350   -8.7820   17.5840 O.co2 264  ASP264     -0.2456
     47  N        -36.7810  -11.3450   16.9300 N.am  265  GLY265     -0.1940
     48  CA       -35.4850  -11.5910   16.3230 C.3   265  GLY265      0.2014
     49  C        -35.3910  -10.8550   14.9960 C.2   265  GLY265      0.2638
     50  O        -36.3980  -10.3560   14.4820 O.2   265  GLY265     -0.2714
     51  N        -34.1780  -10.7610   14.4560 N.am  266  ASN266     -0.1972
     52  CA       -33.9350  -10.1110   13.1560 C.3   266  ASN266      0.1688
     53  C        -34.7370   -8.8070   12.8350 C.2   266  ASN266      0.2292
     54  O        -35.4160   -8.7630   11.8290 O.2   266  ASN266     -0.2864
     55  CB       -34.2000  -11.1560   12.0590 C.3   266  ASN266      0.1181
     56  CG       -33.6920  -10.7260   10.6890 C.2   266  ASN266      0.2629
     57  OD1      -34.4660  -10.6790    9.7240 O.2   266  ASN266     -0.2716
     58  ND2      -32.3920  -10.4160   10.5930 N.am  266  ASN266     -0.0877
     59  N        -28.4200   -7.2510   14.0600 N.3   295  ARG295     -0.1245
     60  CA       -29.5910   -8.0870   13.7450 C.3   295  ARG295      0.1563
     61  C        -30.5560   -8.3240   14.9390 C.2   295  ARG295      0.2260
     62  O        -31.3130   -9.3000   14.9550 O.2   295  ARG295     -0.2867
     63  CB       -29.1300   -9.4140   13.1060 C.3   295  ARG295      0.0307
     64  CG       -28.1440  -10.2020   13.9650 C.3   295  ARG295      0.0489
     65  CD       -27.5090  -11.3920   13.2490 C.3   295  ARG295      0.2205
     66  NE       -26.6630  -12.1630   14.1690 N.pl3 295  ARG295     -0.0865
     67  CZ       -27.0700  -13.2200   14.8740 C.cat 295  ARG295      0.5346
     68  NH1      -28.3220  -13.6640   14.7740 N.pl3 295  ARG295      0.1354
     69  NH2      -26.2150  -13.8480   15.6790 N.pl3 295  ARG295      0.1354
     70  N        -30.6930  -12.2750   19.4880 N.3   318  ALA318     -0.1231
     71  CA       -29.9300  -12.9840   18.4610 C.3   318  ALA318      0.1694
     72  C        -30.5180  -14.3850   18.2500 C.2   318  ALA318      0.2592
     73  O        -30.6210  -14.8570   17.1140 O.2   318  ALA318     -0.2718
     74  CB       -28.4610  -13.0800   18.8680 C.3   318  ALA318      0.0304
     75  N        -30.9120  -15.0250   19.3570 N.am  319  TRP319     -0.1962
     76  CA       -31.4400  -16.4070   19.3840 C.3   319  TRP319      0.1771
     77  C        -30.4130  -17.4940   19.0490 C.2   319  TRP319      0.2619
     78  O        -30.4040  -18.5650   19.6730 O.2   319  TRP319     -0.2715
     79  CB       -32.6820  -16.5640   18.5010 C.3   319  TRP319      0.0590
     80  CG       -33.9290  -15.9610   19.0820 C.ar  319  TRP319      0.0006
     81  CD1      -34.6990  -14.9870   18.5230 C.ar  319  TRP319      0.0946
     82  CD2      -34.5560  -16.3100   20.3240 C.ar  319  TRP319      0.0152
     83  NE1      -35.7690  -14.7020   19.3410 N.ar  319  TRP319     -0.2442
     84  CE2      -35.7000  -15.4940   20.4570 C.ar  319  TRP319      0.0810
     85  CE3      -34.2560  -17.2290   21.3440 C.ar  319  TRP319      0.0012
     86  CZ2      -36.5570  -15.5730   21.5660 C.ar  319  TRP319      0.0191
     87  CZ3      -35.1100  -17.3090   22.4480 C.ar  319  TRP319      0.0001
     88  CH2      -36.2480  -16.4830   22.5470 C.ar  319  TRP319      0.0015
     89  N        -29.5660  -17.2080   18.0640 N.am  320  TRP320     -0.1974
     90  CA       -28.4930  -18.1060   17.6360 C.3   320  TRP320      0.1640
     91  C        -27.2210  -17.2910   17.4060 C.2   320  TRP320      0.2290
     92  O        -27.2920  -16.2140   16.8180 O.2   320  TRP320     -0.2864
     93  CB       -28.9030  -18.8150   16.3400 C.3   320  TRP320      0.0576
     94  CG       -27.9050  -19.8200   15.8440 C.ar  320  TRP320      0.0006
     95  CD1      -27.9090  -21.1670   16.0850 C.ar  320  TRP320      0.0946
     96  CD2      -26.7570  -19.5630   15.0240 C.ar  320  TRP320      0.0152
     97  NE1      -26.8350  -21.7620   15.4660 N.ar  320  TRP320     -0.2442
     98  CE2      -26.1140  -20.8030   14.8040 C.ar  320  TRP320      0.0810
     99  CE3      -26.2120  -18.4060   14.4470 C.ar  320  TRP320      0.0012
    100  CZ2      -24.9500  -20.9200   14.0310 C.ar  320  TRP320      0.0191
    101  CZ3      -25.0490  -18.5240   13.6760 C.ar  320  TRP320      0.0001
    102  CH2      -24.4350  -19.7720   13.4790 C.ar  320  TRP320      0.0015
    103  N        -31.5090  -28.1200   29.8120 N.3   363  TRP363     -0.1241
    104  CA       -32.5180  -28.8760   29.0740 C.3   363  TRP363      0.1605
    105  C        -32.1110  -30.3440   28.8800 C.2   363  TRP363      0.2264
    106  O        -32.5550  -31.0050   27.9350 O.2   363  TRP363     -0.2867
    107  CB       -32.8660  -28.1910   27.7350 C.3   363  TRP363      0.0550
    108  CG       -34.1030  -27.3450   27.8340 C.ar  363  TRP363      0.0003
    109  CD1      -35.3460  -27.6520   27.3580 C.ar  363  TRP363      0.0946
    110  CD2      -34.2260  -26.0850   28.4980 C.ar  363  TRP363      0.0152
    111  NE1      -36.2360  -26.6430   27.6660 N.ar  363  TRP363     -0.2442
    112  CE2      -35.5720  -25.6710   28.3670 C.ar  363  TRP363      0.0810
    113  CE3      -33.3250  -25.2500   29.1750 C.ar  363  TRP363      0.0012
    114  CZ2      -36.0420  -24.4610   28.8970 C.ar  363  TRP363      0.0191
    115  CZ3      -33.7920  -24.0450   29.7020 C.ar  363  TRP363      0.0001
    116  CH2      -35.1360  -23.6630   29.5590 C.ar  363  TRP363      0.0015
    117  N        -25.6570  -29.7900   23.1350 N.3   367  LYS367     -0.1245
    118  CA       -25.9440  -29.1880   21.8340 C.3   367  LYS367      0.1561
    119  C        -24.8120  -29.3960   20.8300 C.2   367  LYS367      0.2260
    120  O        -23.6700  -29.6520   21.2070 O.2   367  LYS367     -0.2867
    121  CB       -26.2010  -27.6790   21.9830 C.3   367  LYS367      0.0271
    122  CG       -27.2740  -27.2960   23.0070 C.3   367  LYS367      0.0035
    123  CD       -28.6770  -27.6970   22.5660 C.3   367  LYS367      0.0206
    124  CE       -29.3630  -26.6200   21.7450 C.3   367  LYS367      0.1093
    125  NZ       -30.7750  -27.0040   21.4300 N.3   367  LYS367     -0.1314
    126  N        -23.7410  -23.9070   19.1900 N.3   371  GLU371     -0.1245
    127  CA       -24.6790  -23.8450   20.3160 C.3   371  GLU371      0.1567
    128  C        -24.1430  -24.6040   21.5210 C.2   371  GLU371      0.2260
    129  O        -23.4950  -25.6460   21.3610 O.2   371  GLU371     -0.2867
    130  CB       -26.0490  -24.3770   19.9120 C.3   371  GLU371      0.0388
    131  CG       -26.8120  -23.4320   19.0190 C.3   371  GLU371      0.1160
    132  CD       -28.1560  -23.9790   18.6200 C.2   371  GLU371      0.3649
    133  OE1      -28.1970  -25.0290   17.9400 O.co2 371  GLU371     -0.2457
    134  OE2      -29.1790  -23.3630   18.9900 O.co2 371  GLU371     -0.2457
    135  N        -25.4850  -25.6070   25.6570 N.3   373  ASN373     -0.1240
    136  CA       -26.3550  -25.5630   26.8420 C.3   373  ASN373      0.1653
    137  C        -25.5200  -25.7530   28.1170 C.2   373  ASN373      0.2266
    138  O        -24.6170  -26.5940   28.1310 O.2   373  ASN373     -0.2867
    139  CB       -27.4460  -26.6420   26.7810 C.3   373  ASN373      0.1155
    140  CG       -28.6430  -26.2500   25.9150 C.2   373  ASN373      0.2627
    141  OD1      -28.7190  -25.1480   25.3610 O.2   373  ASN373     -0.2716
    142  ND2      -29.5950  -27.1690   25.8020 N.am  373  ASN373     -0.0877
    143  N        -27.3170  -21.9300   27.9390 N.3   375  LYS375     -0.1245
    144  CA       -27.0640  -20.6660   27.2230 C.3   375  LYS375      0.1561
    145  C        -26.8630  -19.5230   28.2090 C.2   375  LYS375      0.2260
    146  O        -27.3830  -19.5690   29.3260 O.2   375  LYS375     -0.2867
    147  CB       -28.2640  -20.3000   26.3330 C.3   375  LYS375      0.0271
    148  CG       -28.5920  -21.2750   25.2120 C.3   375  LYS375      0.0035
    149  CD       -29.8170  -20.8260   24.4040 C.3   375  LYS375      0.0206
    150  CE       -29.4520  -19.8450   23.3050 C.3   375  LYS375      0.1093
    151  NZ       -30.5410  -19.6910   22.2840 N.3   375  LYS375     -0.1314
    152  N        -31.7000  -15.6530   26.8800 N.3   378  TRP378     -0.1227
    153  CA       -32.5730  -15.1460   25.8270 C.3   378  TRP378      0.1737
    154  C        -33.5810  -14.2620   26.5560 C.2   378  TRP378      0.2595
    155  O        -33.7590  -14.3900   27.7700 O.2   378  TRP378     -0.2718
    156  CB       -33.2990  -16.2730   25.0720 C.3   378  TRP378      0.0564
    157  CG       -34.1320  -17.2000   25.9420 C.ar  378  TRP378      0.0003
    158  CD1      -35.4820  -17.1180   26.1850 C.ar  378  TRP378      0.0946
    159  CD2      -33.6650  -18.3430   26.6760 C.ar  378  TRP378      0.0152
    160  NE1      -35.8740  -18.1310   27.0260 N.ar  378  TRP378     -0.2442
    161  CE2      -34.7790  -18.8910   27.3510 C.ar  378  TRP378      0.0810
    162  CE3      -32.4120  -18.9480   26.8390 C.ar  378  TRP378      0.0012
    163  CZ2      -34.6800  -20.0270   28.1630 C.ar  378  TRP378      0.0191
    164  CZ3      -32.3080  -20.0630   27.6610 C.ar  378  TRP378      0.0001
    165  CH2      -33.4400  -20.5960   28.3100 C.ar  378  TRP378      0.0015
    166  N        -34.2300  -13.3660   25.8210 N.am  379  MET379     -0.1979
    167  CA       -35.1070  -12.3510   26.4250 C.3   379  MET379      0.1605
    168  C        -34.3770  -11.5590   27.5190 C.2   379  MET379      0.2287
    169  O        -34.9430  -11.2610   28.5730 O.2   379  MET379     -0.2864
    170  CB       -36.4050  -12.9870   26.9500 C.3   379  MET379      0.0413
    171  CG       -37.2590  -13.6090   25.8420 C.3   379  MET379      0.0598
    172  SD       -38.3560  -14.8960   26.4590 S.3   379  MET379     -0.1393
    173  CE       -39.4800  -13.9180   27.4610 C.3   379  MET379      0.0692
    174  N        -35.5690  -15.4880   29.8390 N.3   398  GLY398     -0.1210
    175  CA       -36.9200  -16.0520   29.7810 C.3   398  GLY398      0.1956
    176  C        -37.1790  -17.1580   30.8020 C.2   398  GLY398      0.2611
    177  O        -38.3260  -17.5880   30.9780 O.2   398  GLY398     -0.2717
    178  N        -36.1220  -17.6170   31.4800 N.am  399  ALA399     -0.1979
    179  CA       -36.2480  -18.7300   32.4270 C.3   399  ALA399      0.1597
    180  C        -35.6600  -18.4980   33.8170 C.2   399  ALA399      0.2287
    181  O        -36.0100  -19.2180   34.7470 O.2   399  ALA399     -0.2864
    182  CB       -35.6660  -20.0240   31.8300 C.3   399  ALA399      0.0319
    183  N        -43.7680  -23.9800   29.6960 N.3   448  ASP448     -0.1239
    184  CA       -42.3680  -23.6190   29.3760 C.3   448  ASP448      0.1674
    185  C        -41.2860  -24.6370   29.7880 C.2   448  ASP448      0.2266
    186  O        -40.3310  -24.8590   29.0350 O.2   448  ASP448     -0.2867
    187  CB       -42.0100  -22.2100   29.8900 C.3   448  ASP448      0.1410
    188  CG       -42.9840  -21.1360   29.4050 C.2   448  ASP448      0.3668
    189  OD1      -43.5690  -21.2880   28.3080 O.co2 448  ASP448     -0.2456
    190  OD2      -43.1650  -20.1300   30.1310 O.co2 448  ASP448     -0.2456
    191  N        -37.3520  -32.8090   27.1700 N.3   467  PRO467     -0.2116
    192  CA       -36.7820  -31.5040   26.7900 C.3   467  PRO467      0.1372
    193  C        -37.1330  -30.9700   25.3990 C.2   467  PRO467      0.2244
    194  O        -36.8900  -29.7900   25.1340 O.2   467  PRO467     -0.2868
    195  CB       -35.2700  -31.7110   26.9320 C.3   467  PRO467      0.0268
    196  CG       -35.0560  -33.1810   26.9210 C.3   467  PRO467      0.0207
    197  CD       -36.3120  -33.8290   27.4190 C.3   467  PRO467      0.0892
    198  N        -40.2770  -30.9830   24.4040 N.3   469  TYR469     -0.1227
    199  CA       -41.5740  -30.3610   24.6220 C.3   469  TYR469      0.1736
    200  C        -41.3850  -28.9000   25.0640 C.2   469  TYR469      0.2596
    201  O        -40.2890  -28.4990   25.4670 O.2   469  TYR469     -0.2718
    202  CB       -42.3680  -31.1320   25.6790 C.3   469  TYR469      0.0548
    203  CG       -42.9410  -32.4700   25.2380 C.ar  469  TYR469     -0.0200
    204  CD1      -42.9730  -32.8390   23.8940 C.ar  469  TYR469     -0.0009
    205  CD2      -43.5030  -33.3440   26.1780 C.ar  469  TYR469     -0.0009
    206  CE1      -43.5180  -34.0580   23.4940 C.ar  469  TYR469      0.0417
    207  CE2      -44.0660  -34.5630   25.7890 C.ar  469  TYR469      0.0417
    208  CZ       -44.0680  -34.9110   24.4480 C.ar  469  TYR469      0.1957
    209  OH       -44.6230  -36.1070   24.0620 O.3   469  TYR469     -0.2866
    210  N        -42.4520  -28.1140   24.9670 N.am  470  SER470     -0.1938
    211  CA       -42.4390  -26.7390   25.4510 C.3   470  SER470      0.2055
    212  C        -43.3170  -26.5510   26.6940 C.2   470  SER470      0.2643
    213  O        -42.8970  -25.9010   27.6450 O.2   470  SER470     -0.2714
    214  CB       -42.7920  -25.7460   24.3370 C.3   470  SER470      0.2130
    215  OG       -44.0520  -26.0300   23.7690 O.3   470  SER470     -0.2179
    216  N        -44.5120  -27.1360   26.7030 N.am  471  SER471     -0.1949
    217  CA       -45.3620  -27.1070   27.9020 C.3   471  SER471      0.1924
    218  C        -46.0240  -28.4440   28.1600 C.2   471  SER471      0.2314
    219  O        -46.5500  -29.0560   27.2370 O.2   471  SER471     -0.2863
    220  CB       -46.4390  -26.0290   27.7820 C.3   471  SER471      0.2116
    221  OG       -45.8340  -24.7520   27.7540 O.3   471  SER471     -0.2180
    222  N        -47.5260  -29.4400   24.6290 N.3   490  LYS490     -0.1245
    223  CA       -47.2720  -28.6780   23.4260 C.3   490  LYS490      0.1561
    224  C        -45.7790  -28.7940   23.1310 C.2   490  LYS490      0.2260
    225  O        -44.9740  -29.0170   24.0450 O.2   490  LYS490     -0.2867
    226  CB       -47.7100  -27.2220   23.6210 C.3   490  LYS490      0.0271
    227  CG       -49.1940  -27.1110   24.0180 C.3   490  LYS490      0.0035
    228  CD       -49.7460  -25.7040   23.9260 C.3   490  LYS490      0.0206
    229  CE       -50.1530  -25.3610   22.5000 C.3   490  LYS490      0.1093
    230  NZ       -50.5660  -23.9280   22.3890 N.3   490  LYS490     -0.1314
    231  N        -43.5500  -26.4050   20.7560 N.3   492  ASP492     -0.1225
    232  CA       -43.3910  -25.2550   19.8630 C.3   492  ASP492      0.1805
    233  C        -42.2090  -25.3640   18.9100 C.2   492  ASP492      0.2598
    234  O        -42.2430  -24.8000   17.8170 O.2   492  ASP492     -0.2718
    235  CB       -43.2160  -23.9660   20.6770 C.3   492  ASP492      0.1424
    236  CG       -44.4480  -23.6050   21.4990 C.2   492  ASP492      0.3668
    237  OD1      -45.5640  -24.1080   21.2100 O.co2 492  ASP492     -0.2456
    238  OD2      -44.2880  -22.7960   22.4420 O.co2 492  ASP492     -0.2456
    239  N        -41.1600  -26.0650   19.3300 N.am  493  LEU493     -0.1966
    240  CA       -39.8820  -26.0310   18.6100 C.3   493  LEU493      0.1728
    241  C        -39.5340  -27.2930   17.8220 C.2   493  LEU493      0.2616
    242  O        -38.6700  -27.2500   16.9410 O.2   493  LEU493     -0.2715
    243  CB       -38.7310  -25.7050   19.5710 C.3   493  LEU493      0.0311
    244  CG       -38.7480  -24.4290   20.4240 C.3   493  LEU493      0.0022
    245  CD1      -37.4130  -24.2730   21.1460 C.3   493  LEU493      0.0001
    246  CD2      -39.0380  -23.1960   19.5890 C.3   493  LEU493      0.0001
    247  N        -40.1820  -28.4120   18.1430 N.am  494  TYR494     -0.1974
    248  CA       -39.7940  -29.7010   17.5580 C.3   494  TYR494      0.1639
    249  C        -40.9660  -30.5320   17.0770 C.2   494  TYR494      0.2290
    250  O        -42.0330  -30.5230   17.6870 O.2   494  TYR494     -0.2864
    251  CB       -38.9510  -30.5130   18.5460 C.3   494  TYR494      0.0560
    252  CG       -37.6180  -29.8790   18.8570 C.ar  494  TYR494     -0.0198
    253  CD1      -37.4440  -29.1060   20.0040 C.ar  494  TYR494     -0.0009
    254  CD2      -36.5330  -30.0330   17.9930 C.ar  494  TYR494     -0.0009
    255  CE1      -36.2180  -28.5130   20.2910 C.ar  494  TYR494      0.0417
    256  CE2      -35.3060  -29.4450   18.2670 C.ar  494  TYR494      0.0417
    257  CZ       -35.1550  -28.6850   19.4150 C.ar  494  TYR494      0.1957
    258  OH       -33.9420  -28.1080   19.6880 O.3   494  TYR494     -0.2866
@<TRIPOS>BOND
     1    57    56    2
     2    58    56   am
     3    56    55    1
     4    54    53    2
     5    55    52    1
     6    53    52    1
     7    63    60    1
     8    63    64    1
     9    52    51    1
    10    65    64    1
    11    65    66    1
    12   102   101   ar
    13   102   100   ar
    14   101    99   ar
    15    60    59    1
    16    60    61    1
    17   100    98   ar
    18    66    67    2
    19    99    96   ar
    20    51    49   am
    21    50    49    2
    22    68    67    1
    23    98    96   ar
    24    98    97   ar
    25    67    69    1
    26    61    62    2
    27    49    48    1
    28    96    94   ar
    29    97    95   ar
    30    94    95   ar
    31    94    93    1
    32    48    47    1
    33    93    90    1
    34    92    91    2
    35    47    41   am
    36   242   241    2
    37   249   248    1
    38   249   250    2
    39    73    72    2
    40    91    90    1
    41   248   247    1
    42   248   251    1
    43    46    44   ar
    44    90    89    1
    45   234   233    2
    46   241   247   am
    47   241   240    1
    48   133   132   ar
    49   254   256   ar
    50   254   252   ar
    51    89    77   am
    52    41    40    1
    53    41    42    2
    54    72    71    1
    55    72    75   am
    56   256   257   ar
    57    43    44    1
    58    43    40    1
    59    71    74    1
    60    71    70    1
    61    79    80    1
    62    79    76    1
    63    81    80   ar
    64    81    83   ar
    65    44    45   ar
    66   251   252    1
    67    40    39    1
    68   240   239    1
    69   240   243    1
    70   132   134   ar
    71   132   131    1
    72   252   253   ar
    73   233   239   am
    74   233   232    1
    75   131   130    1
    76    77    76    1
    77    77    78    2
    78    80    82   ar
    79   126   127    1
    80    83    84   ar
    81    75    76    1
    82   257   258    1
    83   257   255   ar
    84   243   244    1
    85   246   244    1
    86    30    29    2
    87   232   235    1
    88   232   231    1
    89   130   127    1
    90    39    29   am
    91   253   255   ar
    92   127   128    1
    93    82    84   ar
    94    82    85   ar
    95    29    28    1
    96   244   245    1
    97    84    86   ar
    98   235   236    1
    99   119   120    2
   100   119   118    1
   101   237   236   ar
   102    85    87   ar
   103   129   128    2
   104   125   124    1
   105   236   238   ar
   106    31    28    1
   107    31    32    1
   108    86    88   ar
   109   124   123    1
   110    28    27    1
   111   118   121    1
   112   118   117    1
   113   121   122    1
   114   151   150    1
   115   230   229    1
   116    87    88   ar
   117   229   228    1
   118   123   122    1
   119    32    33   ar
   120    32    34   ar
   121   224   223    1
   122   224   225    2
   123    33    35   ar
   124   150   149    1
   125   223   226    1
   126   223   222    1
   127   206   204   ar
   128   206   208   ar
   129    34    36   ar
   130   226   227    1
   131   215   214    1
   132   204   203   ar
   133   228   227    1
   134   209   208    1
   135   214   211    1
   136    35    37   ar
   137   198   199    1
   138   149   148    1
   139   208   207   ar
   140   199   200    1
   141   199   202    1
   142    36    37   ar
   143   210   200   am
   144   210   211    1
   145   200   201    2
   146   156   153    1
   147   156   157    1
   148   194   193    2
   149    37    38    1
   150   148   147    1
   151   203   202    1
   152   203   205   ar
   153   141   140    2
   154   193   192    1
   155   211   212    1
   156   135   136    1
   157   207   205   ar
   158   142   140   am
   159   166   167    1
   160   166   154   am
   161   153   154    1
   162   153   152    1
   163   171   172    1
   164   171   170    1
   165   140   139    1
   166   157   158   ar
   167   157   159   ar
   168   158   160   ar
   169   147   144    1
   170   167   170    1
   171   167   168    1
   172   172   173    1
   173   154   155    2
   174   159   162   ar
   175   159   161   ar
   176   212   216   am
   177   212   213    2
   178   216   217    1
   179   139   136    1
   180   192   195    1
   181   192   191    1
   182   162   164   ar
   183   136   137    1
   184   196   195    1
   185   196   197    1
   186   160   161   ar
   187   191   197    1
   188   144   143    1
   189   144   145    1
   190   219   218    2
   191   161   163   ar
   192   109   111   ar
   193   109   108   ar
   194    26    24    1
   195   168   169    2
   196   164   165   ar
   197   111   112   ar
   198   107   108    1
   199   107   104    1
   200   221   220    1
   201   220   217    1
   202   108   110   ar
   203   217   218    1
   204   106   105    2
   205    16    17    1
   206   137   138    2
   207   163   165   ar
   208    25    24    1
   209   145   146    2
   210   189   188   ar
   211   112   110   ar
   212   112   114   ar
   213    24    23    2
   214   110   113   ar
   215   105   104    1
   216   114   116   ar
   217   186   185    2
   218   104   103    1
   219   113   115   ar
   220   184   183    1
   221   184   185    1
   222   184   187    1
   223   188   187    1
   224   188   190   ar
   225    17    20    1
   226    17    18    1
   227    14    15   ar
   228    14    12   ar
   229   116   115   ar
   230    15    13   ar
   231    23    22    1
   232    21    20    1
   233    21    22    1
   234   175   174    1
   235   175   176    1
   236    18    19    2
   237    12    10   ar
   238    13    11   ar
   239    10    11   ar
   240    10     9    1
   241   176   177    2
   242   176   178   am
   243     9     6    1
   244   178   179    1
   245   182   179    1
   246   179   180    1
   247     6     5    1
   248     6     7    1
   249     5     3   am
   250     3     2    1
   251     3     4    2
   252     7     8    2
   253   180   181    2
   254     2     1    1
