@<TRIPOS>MOLECULE
tmp/2cn3B01.pdb
 237 225 0 0 0
SMALL
GASTEIGER

@<TRIPOS>ATOM
      1  N        -39.3790  -18.6600   34.9060 N.3    18  GLY18      -0.1210
      2  CA       -40.1190  -17.7830   34.0090 C.3    18  GLY18       0.1956
      3  C        -39.3830  -16.4880   33.7370 C.2    18  GLY18       0.2611
      4  O        -38.2140  -16.3330   34.0980 O.2    18  GLY18      -0.2717
      5  N        -40.0810  -15.5510   33.1040 N.am   19  PHE19      -0.1976
      6  CA       -39.5070  -14.2770   32.7030 C.3    19  PHE19       0.1639
      7  C        -39.7620  -13.2140   33.7770 C.2    19  PHE19       0.2290
      8  O        -40.9180  -12.8730   34.0740 O.2    19  PHE19      -0.2864
      9  CB       -40.1210  -13.8670   31.3460 C.3    19  PHE19       0.0560
     10  CG       -39.5740  -12.5890   30.7630 C.ar   19  PHE19      -0.0200
     11  CD1      -38.2090  -12.2970   30.8070 C.ar   19  PHE19      -0.0042
     12  CD2      -40.4270  -11.7020   30.1070 C.ar   19  PHE19      -0.0042
     13  CE1      -37.7030  -11.1170   30.2440 C.ar   19  PHE19      -0.0003
     14  CE2      -39.9360  -10.5210   29.5290 C.ar   19  PHE19      -0.0003
     15  CZ       -38.5660  -10.2320   29.5990 C.ar   19  PHE19      -0.0000
     16  N        -43.5280  -11.0310   35.2850 N.3    38  ALA38      -0.1231
     17  CA       -44.6070  -10.7980   34.3230 C.3    38  ALA38       0.1694
     18  C        -45.9640  -11.2970   34.8430 C.2    38  ALA38       0.2591
     19  O        -46.9960  -10.6310   34.6450 O.2    38  ALA38      -0.2718
     20  CB       -44.2720  -11.4390   32.9770 C.3    38  ALA38       0.0304
     21  N        -45.9630  -12.4620   35.4990 N.am   39  ILE39      -0.1980
     22  CA       -47.2000  -13.0550   36.0290 C.3    39  ILE39       0.1595
     23  C        -47.0610  -13.5050   37.4850 C.2    39  ILE39       0.2287
     24  O        -47.9760  -14.1180   38.0350 O.2    39  ILE39      -0.2864
     25  CB       -47.7080  -14.2850   35.1770 C.3    39  ILE39       0.0276
     26  CG1      -46.6680  -15.4180   35.1560 C.3    39  ILE39       0.0022
     27  CG2      -48.1210  -13.8570   33.7570 C.3    39  ILE39       0.0022
     28  CD1      -47.2650  -16.8100   34.8560 C.3    39  ILE39       0.0001
     29  N        -55.8160  -11.6170   40.9490 N.3    64  TYR64      -0.1241
     30  CA       -54.7310  -12.2420   40.2020 C.3    64  TYR64       0.1605
     31  C        -53.9580  -11.2210   39.3560 C.2    64  TYR64       0.2264
     32  O        -52.7270  -11.2600   39.3080 O.2    64  TYR64      -0.2867
     33  CB       -55.2590  -13.3880   39.3260 C.3    64  TYR64       0.0534
     34  CG       -54.2280  -13.9700   38.3910 C.ar   64  TYR64      -0.0201
     35  CD1      -52.9870  -14.4090   38.8670 C.ar   64  TYR64      -0.0009
     36  CD2      -54.4880  -14.0810   37.0280 C.ar   64  TYR64      -0.0009
     37  CE1      -52.0300  -14.9320   38.0020 C.ar   64  TYR64       0.0417
     38  CE2      -53.5350  -14.6150   36.1500 C.ar   64  TYR64       0.0417
     39  CZ       -52.3170  -15.0410   36.6490 C.ar   64  TYR64       0.1957
     40  OH       -51.3820  -15.5570   35.7910 O.3    64  TYR64      -0.2866
     41  N        -52.9010   -7.2500   32.3430 N.3    89  TYR89      -0.1241
     42  CA       -53.2820   -7.0920   30.9380 C.3    89  TYR89       0.1605
     43  C        -54.0400   -5.7840   30.6990 C.2    89  TYR89       0.2264
     44  O        -54.8220   -5.3470   31.5510 O.2    89  TYR89      -0.2867
     45  CB       -54.1340   -8.2790   30.4610 C.3    89  TYR89       0.0534
     46  CG       -53.4660   -9.6300   30.6240 C.ar   89  TYR89      -0.0201
     47  CD1      -52.3580   -9.9780   29.8510 C.ar   89  TYR89      -0.0009
     48  CD2      -53.9480  -10.5610   31.5450 C.ar   89  TYR89      -0.0009
     49  CE1      -51.7430  -11.2200   29.9910 C.ar   89  TYR89       0.0417
     50  CE2      -53.3390  -11.8090   31.6950 C.ar   89  TYR89       0.0417
     51  CZ       -52.2280  -12.1240   30.9200 C.ar   89  TYR89       0.1957
     52  OH       -51.6110  -13.3510   31.0470 O.3    89  TYR89      -0.2866
     53  N        -59.3080   -7.1910   27.9920 N.3    92  ASP92      -0.1225
     54  CA       -60.3710   -7.7080   28.8600 C.3    92  ASP92       0.1805
     55  C        -60.1100   -9.1140   29.4110 C.2    92  ASP92       0.2598
     56  O        -61.0230   -9.7510   29.9390 O.2    92  ASP92      -0.2718
     57  CB       -61.7200   -7.6820   28.1300 C.3    92  ASP92       0.1424
     58  CG       -62.2500   -6.2730   27.9340 C.2    92  ASP92       0.3668
     59  OD1      -62.1430   -5.4480   28.8720 O.co2  92  ASP92      -0.2456
     60  OD2      -62.7890   -5.9940   26.8380 O.co2  92  ASP92      -0.2456
     61  N        -58.8760   -9.5990   29.2890 N.am   93  TRP93      -0.1962
     62  CA       -58.5350  -10.9230   29.8220 C.3    93  TRP93       0.1771
     63  C        -58.7450  -11.0020   31.3340 C.2    93  TRP93       0.2619
     64  O        -59.1230  -12.0520   31.8590 O.2    93  TRP93      -0.2715
     65  CB       -57.1120  -11.3280   29.4550 C.3    93  TRP93       0.0590
     66  CG       -56.9330  -11.7630   28.0180 C.ar   93  TRP93       0.0006
     67  CD1      -57.9040  -11.9100   27.0650 C.ar   93  TRP93       0.0946
     68  CD2      -55.7030  -12.1490   27.3980 C.ar   93  TRP93       0.0152
     69  NE1      -57.3490  -12.3450   25.8850 N.ar   93  TRP93      -0.2442
     70  CE2      -55.9990  -12.4970   26.0600 C.ar   93  TRP93       0.0810
     71  CE3      -54.3770  -12.2210   27.8370 C.ar   93  TRP93       0.0012
     72  CZ2      -55.0130  -12.9200   25.1590 C.ar   93  TRP93       0.0191
     73  CZ3      -53.3980  -12.6380   26.9400 C.ar   93  TRP93       0.0001
     74  CH2      -53.7260  -12.9870   25.6180 C.ar   93  TRP93       0.0015
     75  N        -58.4970   -9.8850   32.0180 N.am   94  LEU94      -0.1977
     76  CA       -58.8340   -9.7280   33.4340 C.3    94  LEU94       0.1596
     77  C        -59.5810   -8.3960   33.6310 C.2    94  LEU94       0.2287
     78  O        -59.3360   -7.4360   32.8940 O.2    94  LEU94      -0.2864
     79  CB       -57.5750   -9.8350   34.3240 C.3    94  LEU94       0.0297
     80  CG       -56.8210  -11.1830   34.3200 C.3    94  LEU94       0.0022
     81  CD1      -55.4660  -11.0960   35.0410 C.3    94  LEU94       0.0001
     82  CD2      -57.6610  -12.3390   34.8890 C.3    94  LEU94       0.0001
     83  N        -47.9810   -8.3050   31.8670 N.3   122  ASN122     -0.1240
     84  CA       -47.7450   -9.4230   30.9330 C.3   122  ASN122      0.1653
     85  C        -48.0640   -9.1050   29.4540 C.2   122  ASN122      0.2266
     86  O        -48.4130  -10.0020   28.6730 O.2   122  ASN122     -0.2867
     87  CB       -48.4820  -10.6970   31.4000 C.3   122  ASN122      0.1155
     88  CG       -47.9290  -11.9650   30.7630 C.2   122  ASN122      0.2627
     89  OD1      -46.7470  -12.0410   30.4510 O.2   122  ASN122     -0.2716
     90  ND2      -48.7880  -12.9640   30.5630 N.am  122  ASN122     -0.0877
     91  N        -42.7850   -5.4680   27.9460 N.3   126  ARG126     -0.1245
     92  CA       -42.7540   -5.4150   29.4150 C.3   126  ARG126      0.1563
     93  C        -41.3660   -5.2790   30.0610 C.2   126  ARG126      0.2260
     94  O        -41.2620   -4.8530   31.2160 O.2   126  ARG126     -0.2867
     95  CB       -43.5310   -6.5800   30.0280 C.3   126  ARG126      0.0307
     96  CG       -43.0050   -7.9760   29.6990 C.3   126  ARG126      0.0489
     97  CD       -44.0690   -8.9840   30.0780 C.3   126  ARG126      0.2205
     98  NE       -43.7790  -10.3560   29.6700 N.pl3 126  ARG126     -0.0865
     99  CZ       -44.0270  -10.8410   28.4550 C.cat 126  ARG126      0.5346
    100  NH1      -43.7490  -12.1120   28.1810 N.pl3 126  ARG126      0.1354
    101  NH2      -44.5480  -10.0560   27.5110 N.pl3 126  ARG126      0.1354
    102  N        -54.3240   -8.0470   16.2770 N.3   180  PHE180     -0.1241
    103  CA       -54.7130   -9.0000   17.3100 C.3   180  PHE180      0.1605
    104  C        -55.0210   -8.2660   18.5910 C.2   180  PHE180      0.2264
    105  O        -54.3640   -7.2740   18.9130 O.2   180  PHE180     -0.2867
    106  CB       -53.6150  -10.0380   17.5450 C.3   180  PHE180      0.0534
    107  CG       -53.2380  -10.8000   16.3130 C.ar  180  PHE180     -0.0203
    108  CD1      -52.1410  -10.4160   15.5530 C.ar  180  PHE180     -0.0042
    109  CD2      -53.9940  -11.8900   15.8980 C.ar  180  PHE180     -0.0042
    110  CE1      -51.7940  -11.1110   14.4000 C.ar  180  PHE180     -0.0003
    111  CE2      -53.6510  -12.5930   14.7500 C.ar  180  PHE180     -0.0003
    112  CZ       -52.5510  -12.2020   14.0010 C.ar  180  PHE180     -0.0000
    113  N        -54.4990   -9.0400   21.7200 N.3   182  TYR182     -0.1227
    114  CA       -53.4030   -9.0360   22.6900 C.3   182  TYR182      0.1736
    115  C        -52.3220   -7.9900   22.3800 C.2   182  TYR182      0.2596
    116  O        -51.7010   -7.4370   23.2960 O.2   182  TYR182     -0.2718
    117  CB       -52.7840  -10.4400   22.8290 C.3   182  TYR182      0.0548
    118  CG       -51.5380  -10.4630   23.6890 C.ar  182  TYR182     -0.0200
    119  CD1      -51.6010  -10.1630   25.0530 C.ar  182  TYR182     -0.0009
    120  CD2      -50.2870  -10.7570   23.1350 C.ar  182  TYR182     -0.0009
    121  CE1      -50.4550  -10.1560   25.8420 C.ar  182  TYR182      0.0417
    122  CE2      -49.1340  -10.7500   23.9180 C.ar  182  TYR182      0.0417
    123  CZ       -49.2300  -10.4520   25.2700 C.ar  182  TYR182      0.1957
    124  OH       -48.0950  -10.4400   26.0550 O.3   182  TYR182     -0.2866
    125  N        -52.1160   -7.7060   21.0970 N.am  183  THR183     -0.1953
    126  CA       -50.9790   -6.8920   20.6710 C.3   183  THR183      0.1897
    127  C        -51.3520   -5.4820   20.1840 C.2   183  THR183      0.2313
    128  O        -50.4760   -4.7220   19.7640 O.2   183  THR183     -0.2863
    129  CB       -50.1650   -7.6110   19.5570 C.3   183  THR183      0.1794
    130  OG1      -51.0430   -7.9500   18.4760 O.3   183  THR183     -0.2208
    131  CG2      -49.5020   -8.8750   20.0810 C.3   183  THR183      0.0378
    132  N        -39.7330  -11.1590   22.5330 N.3   263  TYR263     -0.1241
    133  CA       -39.4550  -12.3770   21.7550 C.3   263  TYR263      0.1605
    134  C        -38.7980  -12.1500   20.3960 C.2   263  TYR263      0.2264
    135  O        -38.3880  -13.1060   19.7280 O.2   263  TYR263     -0.2867
    136  CB       -40.7440  -13.1750   21.5280 C.3   263  TYR263      0.0534
    137  CG       -41.4320  -13.6140   22.7960 C.ar  263  TYR263     -0.0201
    138  CD1      -42.6340  -13.0220   23.1960 C.ar  263  TYR263     -0.0009
    139  CD2      -40.8820  -14.6150   23.6000 C.ar  263  TYR263     -0.0009
    140  CE1      -43.2770  -13.4190   24.3720 C.ar  263  TYR263      0.0417
    141  CE2      -41.5210  -15.0270   24.7720 C.ar  263  TYR263      0.0417
    142  CZ       -42.7130  -14.4220   25.1500 C.ar  263  TYR263      0.1957
    143  OH       -43.3350  -14.8180   26.3080 O.3   263  TYR263     -0.2866
    144  N        -34.2300  -13.3660   25.8210 N.3   379  MET379     -0.1245
    145  CA       -35.1070  -12.3510   26.4250 C.3   379  MET379      0.1570
    146  C        -34.3770  -11.5590   27.5190 C.2   379  MET379      0.2261
    147  O        -34.9430  -11.2610   28.5730 O.2   379  MET379     -0.2867
    148  CB       -36.4050  -12.9870   26.9500 C.3   379  MET379      0.0387
    149  CG       -37.2590  -13.6090   25.8420 C.3   379  MET379      0.0595
    150  SD       -38.3560  -14.8960   26.4590 S.3   379  MET379     -0.1393
    151  CE       -39.4800  -13.9180   27.4610 C.3   379  MET379      0.0692
    152  N        -35.5690  -15.4880   29.8390 N.3   398  GLY398     -0.1225
    153  CA       -36.9200  -16.0520   29.7810 C.3   398  GLY398      0.1811
    154  C        -37.1790  -17.1580   30.8020 C.2   398  GLY398      0.2280
    155  O        -38.3260  -17.5880   30.9780 O.2   398  GLY398     -0.2866
    156  N        -41.8630  -18.8280   39.6270 N.3   427  GLU427     -0.1231
    157  CA       -42.7750  -18.0870   38.7450 C.3   427  GLU427      0.1699
    158  C        -43.4960  -18.9650   37.7030 C.2   427  GLU427      0.2592
    159  O        -44.1510  -18.4450   36.7840 O.2   427  GLU427     -0.2718
    160  CB       -42.0320  -16.9270   38.0440 C.3   427  GLU427      0.0402
    161  CG       -42.9640  -15.8240   37.4610 C.3   427  GLU427      0.1161
    162  CD       -42.3880  -15.0860   36.2290 C.2   427  GLU427      0.3649
    163  OE1      -41.1500  -15.1370   36.0150 O.co2 427  GLU427     -0.2457
    164  OE2      -43.1760  -14.4380   35.4830 O.co2 427  GLU427     -0.2457
    165  N        -43.3770  -20.2840   37.8280 N.am  428  CYS428     -0.1956
    166  CA       -43.9680  -21.1800   36.8270 C.3   428  CYS428      0.1843
    167  C        -45.4910  -21.0990   36.8100 C.2   428  CYS428      0.2625
    168  O        -46.1210  -20.8360   37.8420 O.2   428  CYS428     -0.2714
    169  CB       -43.5110  -22.6320   37.0230 C.3   428  CYS428      0.0997
    170  SG       -41.8130  -22.9130   36.4430 S.3   428  CYS428     -0.0797
    171  N        -46.0610  -21.2910   35.6210 N.am  429  ALA429     -0.1977
    172  CA       -47.4900  -21.5110   35.4750 C.3   429  ALA429      0.1597
    173  C        -47.7060  -23.0210   35.4180 C.2   429  ALA429      0.2287
    174  O        -47.2050  -23.7070   34.5090 O.2   429  ALA429     -0.2864
    175  CB       -48.0220  -20.8400   34.2170 C.3   429  ALA429      0.0319
    176  N        -46.0600  -25.0860   32.2420 N.3   447  GLY447     -0.1210
    177  CA       -45.7570  -24.3190   31.0330 C.3   447  GLY447      0.1956
    178  C        -44.2740  -24.0180   30.9310 C.2   447  GLY447      0.2611
    179  O        -43.5990  -23.8480   31.9500 O.2   447  GLY447     -0.2717
    180  N        -43.7680  -23.9800   29.6960 N.am  448  ASP448     -0.1973
    181  CA       -42.3680  -23.6190   29.3760 C.3   448  ASP448      0.1709
    182  C        -41.2860  -24.6370   29.7880 C.2   448  ASP448      0.2293
    183  O        -40.3310  -24.8590   29.0350 O.2   448  ASP448     -0.2864
    184  CB       -42.0100  -22.2100   29.8900 C.3   448  ASP448      0.1436
    185  CG       -42.9840  -21.1360   29.4050 C.2   448  ASP448      0.3671
    186  OD1      -43.5690  -21.2880   28.3080 O.co2 448  ASP448     -0.2456
    187  OD2      -43.1650  -20.1300   30.1310 O.co2 448  ASP448     -0.2456
    188  N        -47.5260  -29.4400   24.6290 N.3   490  LYS490     -0.1245
    189  CA       -47.2720  -28.6780   23.4260 C.3   490  LYS490      0.1561
    190  C        -45.7790  -28.7940   23.1310 C.2   490  LYS490      0.2260
    191  O        -44.9740  -29.0170   24.0450 O.2   490  LYS490     -0.2867
    192  CB       -47.7100  -27.2220   23.6210 C.3   490  LYS490      0.0271
    193  CG       -49.1940  -27.1110   24.0180 C.3   490  LYS490      0.0035
    194  CD       -49.7460  -25.7040   23.9260 C.3   490  LYS490      0.0206
    195  CE       -50.1530  -25.3610   22.5000 C.3   490  LYS490      0.1093
    196  NZ       -50.5660  -23.9280   22.3890 N.3   490  LYS490     -0.1314
    197  N        -55.8330  -30.0830   22.7520 N.3   539  GLU539     -0.1245
    198  CA       -56.3590  -28.7280   22.6300 C.3   539  GLU539      0.1567
    199  C        -57.1500  -28.5560   21.3290 C.2   539  GLU539      0.2260
    200  O        -56.6470  -28.8580   20.2480 O.2   539  GLU539     -0.2867
    201  CB       -55.2030  -27.7340   22.6700 C.3   539  GLU539      0.0388
    202  CG       -55.6140  -26.2840   22.8060 C.3   539  GLU539      0.1160
    203  CD       -54.4240  -25.3710   22.9910 C.2   539  GLU539      0.3649
    204  OE1      -53.5710  -25.6640   23.8550 O.co2 539  GLU539     -0.2457
    205  OE2      -54.3350  -24.3620   22.2680 O.co2 539  GLU539     -0.2457
    206  N        -66.9040  -24.1590   38.7460 N.3   623  ARG623     -0.1245
    207  CA       -66.6380  -22.7600   39.0670 C.3   623  ARG623      0.1563
    208  C        -67.8440  -22.1720   39.8230 C.2   623  ARG623      0.2260
    209  O        -68.2780  -22.7620   40.8180 O.2   623  ARG623     -0.2867
    210  CB       -66.2590  -21.9600   37.8130 C.3   623  ARG623      0.0307
    211  CG       -64.9870  -22.4650   37.0940 C.3   623  ARG623      0.0489
    212  CD       -64.6230  -21.4950   35.9810 C.3   623  ARG623      0.2205
    213  NE       -63.4670  -21.8710   35.1650 N.pl3 623  ARG623     -0.0865
    214  CZ       -62.2050  -21.5470   35.4460 C.cat 623  ARG623      0.5346
    215  NH1      -61.2290  -21.9000   34.6150 N.pl3 623  ARG623      0.1354
    216  NH2      -61.9120  -20.8770   36.5580 N.pl3 623  ARG623      0.1354
    217  N        -54.1870  -17.0170   40.7420 N.3   697  ALA697     -0.1245
    218  CA       -55.0800  -17.8700   39.9590 C.3   697  ALA697      0.1562
    219  C        -54.7860  -19.3390   40.2310 C.2   697  ALA697      0.2260
    220  O        -53.6860  -19.8280   39.9780 O.2   697  ALA697     -0.2867
    221  CB       -54.9560  -17.5590   38.4640 C.3   697  ALA697      0.0290
    222  N        -56.9360  -22.1790   39.3650 N.3   699  ASP699     -0.1239
    223  CA       -58.0430  -22.8850   38.7220 C.3   699  ASP699      0.1674
    224  C        -57.6200  -23.9410   37.6840 C.2   699  ASP699      0.2266
    225  O        -58.4110  -24.3020   36.8010 O.2   699  ASP699     -0.2867
    226  CB       -59.0710  -21.8930   38.1560 C.3   699  ASP699      0.1410
    227  CG       -58.4650  -20.8900   37.1660 C.2   699  ASP699      0.3668
    228  OD1      -57.2370  -20.8810   36.9560 O.co2 699  ASP699     -0.2456
    229  OD2      -59.2390  -20.1020   36.5920 O.co2 699  ASP699     -0.2456
    230  N        -50.7280  -19.8710   38.7280 N.3   717  ASN717     -0.1240
    231  CA       -50.3820  -19.2960   37.4300 C.3   717  ASN717      0.1653
    232  C        -49.3680  -18.1650   37.6110 C.2   717  ASN717      0.2266
    233  O        -49.6960  -16.9820   37.4340 O.2   717  ASN717     -0.2867
    234  CB       -51.6530  -18.7890   36.7210 C.3   717  ASN717      0.1155
    235  CG       -51.4630  -18.5740   35.2160 C.2   717  ASN717      0.2627
    236  OD1      -50.3510  -18.3800   34.7310 O.2   717  ASN717     -0.2716
    237  ND2      -52.5720  -18.6050   34.4730 N.am  717  ASN717     -0.0877
@<TRIPOS>BOND
     1   112   110   ar
     2   112   111   ar
     3   110   108   ar
     4   111   109   ar
     5   108   107   ar
     6   109   107   ar
     7   102   103    1
     8   107   106    1
     9   103   106    1
    10   103   104    1
    11   130   129    1
    12   104   105    2
    13   129   131    1
    14   129   126    1
    15   135   134    2
    16   128   127    2
    17   127   126    1
    18   200   199    2
    19   134   133    1
    20   126   125    1
    21   125   115   am
    22   199   198    1
    23   136   133    1
    24   136   137    1
    25   113   114    1
    26   133   132    1
    27   205   203   ar
    28   115   114    1
    29   115   116    2
    30   196   195    1
    31   195   194    1
    32   198   201    1
    33   198   197    1
    34   201   202    1
    35   114   117    1
    36   137   138   ar
    37   137   139   ar
    38   202   203    1
    39   117   118    1
    40   203   204   ar
    41   190   189    1
    42   190   191    2
    43   120   118   ar
    44   120   122   ar
    45   138   140   ar
    46   189   192    1
    47   189   188    1
    48   139   141   ar
    49   192   193    1
    50   118   119   ar
    51   122   123   ar
    52   194   193    1
    53   140   142   ar
    54   141   142   ar
    55   119   121   ar
    56   142   143    1
    57    72    74   ar
    58    72    70   ar
    59   123   121   ar
    60   123   124    1
    61    74    73   ar
    62   144   145    1
    63   149   150    1
    64   149   148    1
    65    69    70   ar
    66    69    67   ar
    67    70    68   ar
    68   145   148    1
    69   145   146    1
    70   150   151    1
    71    60    58   ar
    72    73    71   ar
    73    67    66   ar
    74    68    71   ar
    75    68    66   ar
    76   101    99    1
    77   146   147    2
    78    58    57    1
    79    58    59   ar
    80    91    92    1
    81    53    54    1
    82    66    65    1
    83    57    54    1
    84   100    99    1
    85   186   185   ar
    86    99    98    2
    87    86    85    2
    88    54    55    1
    89   183   182    2
    90    61    55   am
    91    61    62    1
    92   181   180    1
    93   181   182    1
    94   181   184    1
    95   185   184    1
    96   185   187   ar
    97    55    56    2
    98    92    95    1
    99    92    93    1
   100    85    84    1
   101    65    62    1
   102    14    15   ar
   103    14    12   ar
   104    15    13   ar
   105    98    97    1
   106   180   178   am
   107    96    95    1
   108    96    97    1
   109   153   152    1
   110   153   154    1
   111    62    63    1
   112    47    49   ar
   113    47    46   ar
   114    49    51   ar
   115    93    94    2
   116    12    10   ar
   117    13    11   ar
   118    89    88    2
   119    45    46    1
   120    45    42    1
   121    90    88   am
   122    46    48   ar
   123    43    42    1
   124    43    44    2
   125    10    11   ar
   126    10     9    1
   127    88    87    1
   128   154   155    2
   129    51    52    1
   130    51    50   ar
   131   178   177    1
   132   178   179    2
   133    84    87    1
   134    84    83    1
   135    42    41    1
   136   177   176    1
   137    63    64    2
   138    63    75   am
   139     9     6    1
   140    48    50   ar
   141    75    76    1
   142     6     5    1
   143     6     7    1
   144    78    77    2
   145    20    17    1
   146     5     3   am
   147    76    77    1
   148    76    79    1
   149     3     2    1
   150     3     4    2
   151    27    25    1
   152     7     8    2
   153     2     1    1
   154   175   172    1
   155    80    79    1
   156    80    82    1
   157    80    81    1
   158    17    18    1
   159    17    16    1
   160   237   235   am
   161   174   173    2
   162   215   214    1
   163    19    18    2
   164   236   235    2
   165    18    21   am
   166    28    26    1
   167    26    25    1
   168   213   214    2
   169   213   212    1
   170    25    22    1
   171   235   234    1
   172   173   172    1
   173   214   216    1
   174   172   171    1
   175   164   162   ar
   176    21    22    1
   177   171   167   am
   178    40    39    1
   179   212   211    1
   180   163   162   ar
   181    22    23    1
   182    38    39   ar
   183    38    36   ar
   184   162   161    1
   185   170   169    1
   186   229   227   ar
   187    39    37   ar
   188   234   231    1
   189   159   158    2
   190   225   224    2
   191   167   166    1
   192   167   168    2
   193   166   169    1
   194   166   165    1
   195   228   227   ar
   196    36    34   ar
   197   211   210    1
   198   227   226    1
   199   231   232    1
   200   231   230    1
   201   233   232    2
   202   161   160    1
   203    23    24    2
   204   224   223    1
   205   158   165   am
   206   158   157    1
   207   210   207    1
   208    37    35   ar
   209   160   157    1
   210   226   223    1
   211    34    35   ar
   212    34    33    1
   213   221   218    1
   214   223   222    1
   215   157   156    1
   216   206   207    1
   217   207   208    1
   218    32    31    2
   219    33    30    1
   220    31    30    1
   221   208   209    2
   222   218   219    1
   223   218   217    1
   224   220   219    2
   225    30    29    1
