@<TRIPOS>MOLECULE
tmp/2cn3A01.pdb
 224 211 0 0 0
SMALL
GASTEIGER

@<TRIPOS>ATOM
      1  N        -31.1820   52.0240   22.5260 N.3    18  GLY18      -0.1210
      2  CA       -30.4610   52.8720   23.4750 C.3    18  GLY18       0.1956
      3  C        -31.1820   54.1840   23.7120 C.2    18  GLY18       0.2611
      4  O        -32.3360   54.3500   23.3060 O.2    18  GLY18      -0.2717
      5  N        -30.4940   55.1250   24.3520 N.am   19  PHE19      -0.1976
      6  CA       -31.0790   56.4090   24.7390 C.3    19  PHE19       0.1639
      7  C        -30.8220   57.4840   23.6880 C.2    19  PHE19       0.2290
      8  O        -29.6720   57.8360   23.4190 O.2    19  PHE19      -0.2864
      9  CB       -30.4870   56.8370   26.0980 C.3    19  PHE19       0.0560
     10  CG       -31.0570   58.1160   26.6730 C.ar   19  PHE19      -0.0200
     11  CD1      -32.4240   58.3970   26.6150 C.ar   19  PHE19      -0.0042
     12  CD2      -30.2220   59.0080   27.3490 C.ar   19  PHE19      -0.0042
     13  CE1      -32.9420   59.5590   27.1810 C.ar   19  PHE19      -0.0003
     14  CE2      -30.7350   60.1850   27.9260 C.ar   19  PHE19      -0.0003
     15  CZ       -32.1000   60.4540   27.8400 C.ar   19  PHE19      -0.0000
     16  N        -27.0110   59.6410   22.2540 N.3    38  ALA38      -0.1231
     17  CA       -25.9390   59.8570   23.2290 C.3    38  ALA38       0.1694
     18  C        -24.5770   59.3690   22.7180 C.2    38  ALA38       0.2591
     19  O        -23.5530   60.0330   22.9380 O.2    38  ALA38      -0.2718
     20  CB       -26.2820   59.1800   24.5570 C.3    38  ALA38       0.0304
     21  N        -24.5620   58.2100   22.0570 N.am   39  ILE39      -0.1980
     22  CA       -23.3110   57.6210   21.5560 C.3    39  ILE39       0.1595
     23  C        -23.4250   57.1800   20.0950 C.2    39  ILE39       0.2287
     24  O        -22.4900   56.5830   19.5600 O.2    39  ILE39      -0.2864
     25  CB       -22.8280   56.3960   22.4080 C.3    39  ILE39       0.0276
     26  CG1      -23.8510   55.2440   22.3620 C.3    39  ILE39       0.0022
     27  CG2      -22.5020   56.8160   23.8570 C.3    39  ILE39       0.0022
     28  CD1      -23.2680   53.8740   22.7520 C.3    39  ILE39       0.0001
     29  N        -14.6880   59.0720   16.6840 N.3    64  TYR64      -0.1241
     30  CA       -15.7830   58.4300   17.4210 C.3    64  TYR64       0.1605
     31  C        -16.5640   59.4170   18.2920 C.2    64  TYR64       0.2264
     32  O        -17.7910   59.3330   18.3870 O.2    64  TYR64      -0.2867
     33  CB       -15.2450   57.2770   18.2870 C.3    64  TYR64       0.0534
     34  CG       -16.2720   56.6870   19.2410 C.ar   64  TYR64      -0.0201
     35  CD1      -17.5220   56.2520   18.7770 C.ar   64  TYR64      -0.0009
     36  CD2      -15.9940   56.5630   20.6020 C.ar   64  TYR64      -0.0009
     37  CE1      -18.4690   55.7170   19.6500 C.ar   64  TYR64       0.0417
     38  CE2      -16.9370   56.0260   21.4900 C.ar   64  TYR64       0.0417
     39  CZ       -18.1680   55.5990   21.0050 C.ar   64  TYR64       0.1957
     40  OH       -19.1000   55.0720   21.8810 O.3    64  TYR64      -0.2866
     41  N        -17.6690   63.3620   25.3540 N.3    89  TYR89      -0.1241
     42  CA       -17.2980   63.5110   26.7610 C.3    89  TYR89       0.1605
     43  C        -16.5310   64.8140   27.0070 C.2    89  TYR89       0.2264
     44  O        -15.7750   65.2710   26.1430 O.2    89  TYR89      -0.2867
     45  CB       -16.4520   62.3210   27.2320 C.3    89  TYR89       0.0534
     46  CG       -17.1230   60.9670   27.0450 C.ar   89  TYR89      -0.0201
     47  CD1      -18.2600   60.6170   27.7880 C.ar   89  TYR89      -0.0009
     48  CD2      -16.6130   60.0370   26.1400 C.ar   89  TYR89      -0.0009
     49  CE1      -18.8790   59.3770   27.6250 C.ar   89  TYR89       0.0417
     50  CE2      -17.2230   58.7900   25.9670 C.ar   89  TYR89       0.0417
     51  CZ       -18.3590   58.4720   26.7070 C.ar   89  TYR89       0.1957
     52  OH       -18.9670   57.2460   26.5370 O.3    89  TYR89      -0.2866
     53  N        -11.3530   63.3210   29.7910 N.3    92  ASP92      -0.1225
     54  CA       -10.2920   62.8370   28.9060 C.3    92  ASP92       0.1805
     55  C        -10.5440   61.4430   28.3360 C.2    92  ASP92       0.2598
     56  O         -9.6210   60.8110   27.8020 O.2    92  ASP92      -0.2718
     57  CB        -8.9370   62.8710   29.6240 C.3    92  ASP92       0.1424
     58  CG        -8.3930   64.2720   29.7650 C.2    92  ASP92       0.3668
     59  OD1       -8.7370   65.1390   28.9240 O.co2  92  ASP92      -0.2456
     60  OD2       -7.6170   64.5030   30.7170 O.co2  92  ASP92      -0.2456
     61  N        -11.7800   60.9590   28.4490 N.am   93  TRP93      -0.1962
     62  CA       -12.1130   59.6330   27.9130 C.3    93  TRP93       0.1771
     63  C        -11.8550   59.5610   26.4100 C.2    93  TRP93       0.2619
     64  O        -11.4580   58.5180   25.8920 O.2    93  TRP93      -0.2715
     65  CB       -13.5540   59.2390   28.2370 C.3    93  TRP93       0.0590
     66  CG       -13.7660   58.7930   29.6650 C.ar   93  TRP93       0.0006
     67  CD1      -12.8120   58.6250   30.6290 C.ar   93  TRP93       0.0946
     68  CD2      -15.0120   58.4200   30.2660 C.ar   93  TRP93       0.0152
     69  NE1      -13.3890   58.1850   31.7950 N.ar   93  TRP93      -0.2442
     70  CE2      -14.7390   58.0530   31.6020 C.ar   93  TRP93       0.0810
     71  CE3      -16.3350   58.3690   29.8080 C.ar   93  TRP93       0.0012
     72  CZ2      -15.7400   57.6350   32.4840 C.ar   93  TRP93       0.0191
     73  CZ3      -17.3300   57.9540   30.6840 C.ar   93  TRP93       0.0001
     74  CH2      -17.0260   57.5950   32.0090 C.ar   93  TRP93       0.0015
     75  N        -12.0790   60.6830   25.7280 N.am   94  LEU94      -0.1977
     76  CA       -11.7350   60.8440   24.3200 C.3    94  LEU94       0.1596
     77  C        -10.9630   62.1610   24.1400 C.2    94  LEU94       0.2287
     78  O        -11.1850   63.1140   24.8900 O.2    94  LEU94      -0.2864
     79  CB       -12.9970   60.8020   23.4420 C.3    94  LEU94       0.0297
     80  CG       -13.7960   59.4860   23.4270 C.3    94  LEU94       0.0022
     81  CD1      -15.0630   59.6130   22.5930 C.3    94  LEU94       0.0001
     82  CD2      -12.9560   58.3080   22.9340 C.3    94  LEU94       0.0001
     83  N        -22.6130   62.3280   25.7840 N.3   122  ASN122     -0.1240
     84  CA       -22.8820   61.2000   26.6800 C.3   122  ASN122      0.1653
     85  C        -22.5570   61.5120   28.1490 C.2   122  ASN122      0.2266
     86  O        -22.2080   60.6100   28.9250 O.2   122  ASN122     -0.2867
     87  CB       -22.1530   59.9320   26.2030 C.3   122  ASN122      0.1155
     88  CG       -22.7100   58.6610   26.8280 C.2   122  ASN122      0.2627
     89  OD1      -23.8960   58.5800   27.1510 O.2   122  ASN122     -0.2716
     90  ND2      -21.8490   57.6640   27.0140 N.am  122  ASN122     -0.0877
     91  N        -27.8220   65.1960   29.5930 N.3   126  ARG126     -0.1245
     92  CA       -27.8000   65.2570   28.1320 C.3   126  ARG126      0.1563
     93  C        -29.1760   65.4010   27.4720 C.2   126  ARG126      0.2260
     94  O        -29.2590   65.8110   26.3180 O.2   126  ARG126     -0.2867
     95  CB       -27.0200   64.0820   27.5280 C.3   126  ARG126      0.0307
     96  CG       -27.5600   62.6980   27.8520 C.3   126  ARG126      0.0489
     97  CD       -26.5210   61.6710   27.4210 C.3   126  ARG126      0.2205
     98  NE       -26.8250   60.2990   27.8240 N.pl3 126  ARG126     -0.0865
     99  CZ       -26.6160   59.8100   29.0440 C.cat 126  ARG126      0.5346
    100  NH1      -26.9110   58.5370   29.3090 N.pl3 126  ARG126      0.1354
    101  NH2      -26.1210   60.5880   30.0000 N.pl3 126  ARG126      0.1354
    102  N        -16.4830   62.4370   41.4090 N.3   180  PHE180     -0.1241
    103  CA       -16.0360   61.5120   40.3640 C.3   180  PHE180      0.1605
    104  C        -15.6850   62.2480   39.0830 C.2   180  PHE180      0.2264
    105  O        -16.3220   63.2470   38.7430 O.2   180  PHE180     -0.2867
    106  CB       -17.1110   60.4650   40.0750 C.3   180  PHE180      0.0534
    107  CG       -17.5230   59.6660   41.2790 C.ar  180  PHE180     -0.0203
    108  CD1      -18.6890   59.9810   41.9700 C.ar  180  PHE180     -0.0042
    109  CD2      -16.7490   58.5950   41.7180 C.ar  180  PHE180     -0.0042
    110  CE1      -19.0810   59.2400   43.0860 C.ar  180  PHE180     -0.0003
    111  CE2      -17.1300   57.8500   42.8340 C.ar  180  PHE180     -0.0003
    112  CZ       -18.3000   58.1760   43.5180 C.ar  180  PHE180     -0.0000
    113  N        -16.1850   61.4700   35.9300 N.3   182  TYR182     -0.1241
    114  CA       -17.2880   61.4910   34.9640 C.3   182  TYR182      0.1605
    115  C        -18.3620   62.5520   35.2630 C.2   182  TYR182      0.2264
    116  O        -18.9480   63.1150   34.3440 O.2   182  TYR182     -0.2867
    117  CB       -17.9260   60.0950   34.8160 C.3   182  TYR182      0.0534
    118  CG       -19.1680   60.1000   33.9470 C.ar  182  TYR182     -0.0201
    119  CD1      -19.0880   60.4320   32.5940 C.ar  182  TYR182     -0.0009
    120  CD2      -20.4320   59.8050   34.4840 C.ar  182  TYR182     -0.0009
    121  CE1      -20.2160   60.4630   31.7960 C.ar  182  TYR182      0.0417
    122  CE2      -21.5760   59.8440   33.6880 C.ar  182  TYR182      0.0417
    123  CZ       -21.4540   60.1760   32.3460 C.ar  182  TYR182      0.1957
    124  OH       -22.5630   60.2300   31.5380 O.3   182  TYR182     -0.2866
    125  N        -30.9730   59.4970   34.9820 N.3   263  TYR263     -0.1241
    126  CA       -31.2620   58.2500   35.7110 C.3   263  TYR263      0.1605
    127  C        -31.9250   58.4340   37.0710 C.2   263  TYR263      0.2264
    128  O        -32.3650   57.4560   37.6890 O.2   263  TYR263     -0.2867
    129  CB       -29.9860   57.4230   35.9170 C.3   263  TYR263      0.0534
    130  CG       -29.2860   57.0060   34.6540 C.ar  263  TYR263     -0.0201
    131  CD1      -28.0520   57.5610   34.3100 C.ar  263  TYR263     -0.0009
    132  CD2      -29.8410   56.0440   33.8070 C.ar  263  TYR263     -0.0009
    133  CE1      -27.3900   57.1770   33.1520 C.ar  263  TYR263      0.0417
    134  CE2      -29.1820   55.6470   32.6520 C.ar  263  TYR263      0.0417
    135  CZ       -27.9580   56.2270   32.3330 C.ar  263  TYR263      0.1957
    136  OH       -27.3110   55.8510   31.1910 O.3   263  TYR263     -0.2866
    137  N        -36.4470   57.3040   31.5840 N.3   379  MET379     -0.1245
    138  CA       -35.5560   58.2990   30.9750 C.3   379  MET379      0.1570
    139  C        -36.2580   59.1120   29.8760 C.2   379  MET379      0.2261
    140  O        -35.6650   59.4210   28.8420 O.2   379  MET379     -0.2867
    141  CB       -34.2620   57.6390   30.4620 C.3   379  MET379      0.0387
    142  CG       -33.4390   56.9910   31.5870 C.3   379  MET379      0.0595
    143  SD       -32.2820   55.7490   30.9900 S.3   379  MET379     -0.1393
    144  CE       -31.1990   56.7700   29.9740 C.3   379  MET379      0.0692
    145  N        -35.0500   55.2200   27.5220 N.3   398  GLY398     -0.1225
    146  CA       -33.7090   54.6360   27.5840 C.3   398  GLY398      0.1811
    147  C        -33.4770   53.5040   26.5850 C.2   398  GLY398      0.2280
    148  O        -32.3350   53.0640   26.4090 O.2   398  GLY398     -0.2866
    149  N        -28.6370   51.8810   17.8650 N.3   427  GLU427     -0.1245
    150  CA       -27.7230   52.6100   18.7650 C.3   427  GLU427      0.1567
    151  C        -27.0320   51.7100   19.8090 C.2   427  GLU427      0.2260
    152  O        -26.3760   52.2060   20.7330 O.2   427  GLU427     -0.2867
    153  CB       -28.4660   53.7650   19.4840 C.3   427  GLU427      0.0388
    154  CG       -27.5360   54.9070   20.0180 C.3   427  GLU427      0.1160
    155  CD       -28.0840   55.6540   21.2590 C.2   427  GLU427      0.3649
    156  OE1      -29.3220   55.6310   21.4850 O.co2 427  GLU427     -0.2457
    157  OE2      -27.2780   56.2750   22.0070 O.co2 427  GLU427     -0.2457
    158  N        -24.4940   49.3990   21.8810 N.3   429  ALA429     -0.1245
    159  CA       -23.0680   49.1550   22.0450 C.3   429  ALA429      0.1562
    160  C        -22.8830   47.6420   22.1230 C.2   429  ALA429      0.2260
    161  O        -23.3970   46.9690   23.0290 O.2   429  ALA429     -0.2867
    162  CB       -22.5270   49.8530   23.3030 C.3   429  ALA429      0.0290
    163  N        -24.5960   45.6310   25.1940 N.3   447  GLY447     -0.1210
    164  CA       -24.8770   46.3910   26.4110 C.3   447  GLY447      0.1956
    165  C        -26.3700   46.6620   26.5160 C.2   447  GLY447      0.2611
    166  O        -27.0390   46.8570   25.4990 O.2   447  GLY447     -0.2717
    167  N        -26.8890   46.6510   27.7460 N.am  448  ASP448     -0.1973
    168  CA       -28.2850   47.0570   28.0630 C.3   448  ASP448      0.1709
    169  C        -29.4070   46.0900   27.6480 C.2   448  ASP448      0.2293
    170  O        -30.3710   45.8890   28.4080 O.2   448  ASP448     -0.2864
    171  CB       -28.5820   48.4790   27.5600 C.3   448  ASP448      0.1436
    172  CG       -27.6010   49.5030   28.0990 C.2   448  ASP448      0.3671
    173  OD1      -27.0520   49.2940   29.2070 O.co2 448  ASP448     -0.2456
    174  OD2      -27.3780   50.5230   27.4140 O.co2 448  ASP448     -0.2456
    175  N        -23.2230   41.1940   32.8870 N.3   490  LYS490     -0.1245
    176  CA       -23.4800   41.9910   34.0650 C.3   490  LYS490      0.1561
    177  C        -24.9750   41.8760   34.3460 C.2   490  LYS490      0.2260
    178  O        -25.7700   41.6500   33.4220 O.2   490  LYS490     -0.2867
    179  CB       -23.0710   43.4490   33.8080 C.3   490  LYS490      0.0271
    180  CG       -21.6100   43.5680   33.3480 C.3   490  LYS490      0.0035
    181  CD       -21.0200   44.9440   33.5320 C.3   490  LYS490      0.0206
    182  CE       -20.5560   45.1510   34.9630 C.3   490  LYS490      0.1093
    183  NZ       -19.8330   46.4460   35.0860 N.3   490  LYS490     -0.1314
    184  N        -14.8120   40.5910   34.9050 N.3   539  GLU539     -0.1245
    185  CA       -14.2850   41.9450   34.9990 C.3   539  GLU539      0.1567
    186  C        -13.4890   42.1360   36.2960 C.2   539  GLU539      0.2260
    187  O        -13.9900   41.8490   37.3840 O.2   539  GLU539     -0.2867
    188  CB       -15.4340   42.9510   34.9350 C.3   539  GLU539      0.0388
    189  CG       -14.9890   44.3950   35.0170 C.3   539  GLU539      0.1160
    190  CD       -16.0940   45.3730   34.6790 C.2   539  GLU539      0.3649
    191  OE1      -16.9120   45.0610   33.7920 O.co2 539  GLU539     -0.2457
    192  OE2      -16.1340   46.4640   35.2920 O.co2 539  GLU539     -0.2457
    193  N         -3.6390   46.5720   18.8810 N.3   623  ARG623     -0.1245
    194  CA        -3.9050   47.9880   18.6180 C.3   623  ARG623      0.1563
    195  C         -2.7000   48.5940   17.8600 C.2   623  ARG623      0.2260
    196  O         -2.2480   47.9900   16.8820 O.2   623  ARG623     -0.2867
    197  CB        -4.2660   48.7420   19.9110 C.3   623  ARG623      0.0307
    198  CG        -5.5630   48.2520   20.6150 C.3   623  ARG623      0.0489
    199  CD        -5.8910   49.1670   21.7970 C.3   623  ARG623      0.2205
    200  NE        -7.1250   48.8570   22.5280 N.pl3 623  ARG623     -0.0865
    201  CZ        -8.3550   49.1760   22.1200 C.cat 623  ARG623      0.5346
    202  NH1       -9.4120   48.8880   22.8840 N.pl3 623  ARG623      0.1354
    203  NH2       -8.5390   49.7800   20.9530 N.pl3 623  ARG623      0.1354
    204  N        -16.4000   53.6460   16.8840 N.3   697  ALA697     -0.1245
    205  CA       -15.5260   52.7950   17.6870 C.3   697  ALA697      0.1562
    206  C        -15.7740   51.3200   17.3880 C.2   697  ALA697      0.2260
    207  O        -16.8560   50.7990   17.6330 O.2   697  ALA697     -0.2867
    208  CB       -15.6890   53.0980   19.1830 C.3   697  ALA697      0.0290
    209  N        -13.5900   48.4480   18.2180 N.3   699  ASP699     -0.1239
    210  CA       -12.4840   47.7640   18.8790 C.3   699  ASP699      0.1674
    211  C        -12.9350   46.7370   19.9360 C.2   699  ASP699      0.2266
    212  O        -12.1790   46.4050   20.8650 O.2   699  ASP699     -0.2867
    213  CB       -11.4820   48.7850   19.4580 C.3   699  ASP699      0.1410
    214  CG       -12.1180   49.7510   20.4680 C.2   699  ASP699      0.3668
    215  OD1      -13.3570   49.7610   20.6390 O.co2 699  ASP699     -0.2456
    216  OD2      -11.3600   50.5080   21.1000 O.co2 699  ASP699     -0.2456
    217  N        -19.8170   50.8230   18.7920 N.3   717  ASN717     -0.1240
    218  CA       -20.1640   51.3770   20.0940 C.3   717  ASN717      0.1653
    219  C        -21.1640   52.5220   19.9210 C.2   717  ASN717      0.2266
    220  O        -20.8370   53.6960   20.1330 O.2   717  ASN717     -0.2867
    221  CB       -18.8880   51.8580   20.8100 C.3   717  ASN717      0.1155
    222  CG       -19.0770   52.0460   22.3150 C.2   717  ASN717      0.2627
    223  OD1      -20.1890   52.2610   22.7950 O.2   717  ASN717     -0.2716
    224  ND2      -17.9700   51.9830   23.0640 N.am  717  ASN717     -0.0877
@<TRIPOS>BOND
     1    29    30    1
     2   196   195    2
     3   204   205    1
     4   206   207    2
     5   206   205    1
     6    30    33    1
     7    30    31    1
     8   205   208    1
     9   195   194    1
    10   149   150    1
    11   209   210    1
    12    33    34    1
    13    31    32    2
    14   194   193    1
    15   194   197    1
    16   150   153    1
    17   150   151    1
    18    35    34   ar
    19    35    37   ar
    20   217   218    1
    21   210   213    1
    22   210   211    1
    23    34    36   ar
    24   213   214    1
    25   153   154    1
    26    24    23    2
    27    37    39   ar
    28   151   152    2
    29   197   198    1
    30   219   218    1
    31   219   220    2
    32   211   212    2
    33   154   155    1
    34   218   221    1
    35    23    22    1
    36   214   215   ar
    37   214   216   ar
    38    36    38   ar
    39   198   199    1
    40   221   222    1
    41   203   201    1
    42    39    38   ar
    43    39    40    1
    44   155   156   ar
    45   155   157   ar
    46    22    21    1
    47    22    25    1
    48   199   200    1
    49   158   159    1
    50   159   160    1
    51   159   162    1
    52    21    18   am
    53   201   200    2
    54   201   202    1
    55   160   161    2
    56    16    17    1
    57   222   223    2
    58   222   224   am
    59    26    25    1
    60    26    28    1
    61    25    27    1
    62     1     2    1
    63    81    80    1
    64    18    19    2
    65    18    17    1
    66    82    80    1
    67    17    20    1
    68     4     3    2
    69     8     7    2
    70    80    79    1
    71    79    76    1
    72     2     3    1
    73     7     6    1
    74     3     5   am
    75    77    76    1
    76    77    78    2
    77    76    75    1
    78     5     6    1
    79     6     9    1
    80   163   164    1
    81    41    42    1
    82   166   165    2
    83    75    63   am
    84    83    84    1
    85    64    63    2
    86    50    48   ar
    87    50    51   ar
    88     9    10    1
    89    48    46   ar
    90    44    43    2
    91    87    84    1
    92    87    88    1
    93    94    93    2
    94   148   147    2
    95    63    62    1
    96   164   165    1
    97   165   167   am
    98    52    51    1
    99   147   146    1
   100    11    10   ar
   101    11    13   ar
   102    10    12   ar
   103    84    85    1
   104    51    49   ar
   105    42    43    1
   106    42    45    1
   107    88    90   am
   108    88    89    2
   109    46    45    1
   110    46    47   ar
   111    13    15   ar
   112    12    14   ar
   113   174   172   ar
   114    97    98    1
   115    97    96    1
   116    93    92    1
   117   145   146    1
   118    95    96    1
   119    95    92    1
   120   171   168    1
   121   171   172    1
   122    49    47   ar
   123   169   168    1
   124   169   170    2
   125   167   168    1
   126    56    55    2
   127    98    99    2
   128    15    14   ar
   129    62    65    1
   130    62    61    1
   131   172   173   ar
   132    92    91    1
   133    85    86    2
   134    65    66    1
   135    55    61   am
   136    55    54    1
   137   140   139    2
   138    54    57    1
   139    54    53    1
   140    59    58   ar
   141    99   100    1
   142    99   101    1
   143    57    58    1
   144    66    68   ar
   145    66    67   ar
   146    58    60   ar
   147    71    68   ar
   148    71    73   ar
   149   139   138    1
   150   144   143    1
   151    68    70   ar
   152   141   138    1
   153   141   142    1
   154    67    69   ar
   155    73    74   ar
   156   138   137    1
   157   143   142    1
   158   136   135    1
   159   124   123    1
   160    70    69   ar
   161    70    72   ar
   162   121   123   ar
   163   121   119   ar
   164    74    72   ar
   165   135   134   ar
   166   135   133   ar
   167   123   122   ar
   168   119   118   ar
   169   134   132   ar
   170   175   176    1
   171   133   131   ar
   172   180   181    1
   173   180   179    1
   174   178   177    2
   175   181   182    1
   176   122   120   ar
   177   191   190   ar
   178   132   130   ar
   179   179   176    1
   180   118   120   ar
   181   118   117    1
   182   176   177    1
   183   131   130   ar
   184   116   115    2
   185   130   129    1
   186   190   189    1
   187   190   192   ar
   188   117   114    1
   189   184   185    1
   190   188   185    1
   191   188   189    1
   192   182   183    1
   193   114   115    1
   194   114   113    1
   195   125   126    1
   196   185   186    1
   197   126   129    1
   198   126   127    1
   199   186   187    2
   200   127   128    2
   201   105   104    2
   202   104   103    1
   203   106   103    1
   204   106   107    1
   205   103   102    1
   206   107   109   ar
   207   107   108   ar
   208   109   111   ar
   209   108   110   ar
   210   111   112   ar
   211   110   112   ar
