@<TRIPOS>MOLECULE
tmp/2cn5A00.pdb
 152 142 0 0 0
SMALL
GASTEIGER

@<TRIPOS>ATOM
      1  N         90.2340  -46.3180   22.6940 N.3    19  LEU19      -0.1231
      2  CA        89.1790  -46.9290   23.5170 C.3    19  LEU19       0.1693
      3  C         88.5130  -48.1300   22.8050 C.2    19  LEU19       0.2593
      4  O         88.1550  -49.1490   23.4340 O.2    19  LEU19      -0.2718
      5  CB        88.1290  -45.8820   23.9200 C.3    19  LEU19       0.0284
      6  CG        88.5410  -44.7440   24.8760 C.3    19  LEU19       0.0019
      7  CD1       87.5020  -43.6550   24.8830 C.3    19  LEU19       0.0001
      8  CD2       88.7850  -45.2530   26.3000 C.3    19  LEU19       0.0001
      9  N         88.3580  -48.0100   21.4910 N.am   20  GLY20      -0.1942
     10  CA        87.7880  -49.0910   20.7100 C.3    20  GLY20       0.2014
     11  C         87.7760  -48.7670   19.2440 C.2    20  GLY20       0.2640
     12  O         88.2450  -47.7220   18.8410 O.2    20  GLY20      -0.2714
     13  N         87.2580  -49.6890   18.4450 N.am   21  SER21      -0.1935
     14  CA        87.1760  -49.5090   17.0020 C.3    21  SER21       0.2055
     15  C         86.0830  -50.4130   16.4190 C.2    21  SER21       0.2644
     16  O         85.6000  -51.3360   17.0750 O.2    21  SER21      -0.2714
     17  CB        88.5530  -49.7320   16.3210 C.3    21  SER21       0.2130
     18  OG        88.9670  -51.0890   16.3600 O.3    21  SER21      -0.2179
     19  N         85.6650  -50.1140   15.2000 N.am   22  GLY22      -0.1939
     20  CA        84.7650  -50.9980   14.4760 C.3    22  GLY22       0.2014
     21  C         85.0600  -50.9210   12.9970 C.2    22  GLY22       0.2639
     22  O         86.1310  -50.4540   12.5880 O.2    22  GLY22      -0.2714
     23  N         84.0890  -51.3640   12.2020 N.am   23  ALA23      -0.1963
     24  CA        84.1860  -51.3630   10.7360 C.3    23  ALA23       0.1728
     25  C         84.1640  -49.9370   10.1580 C.2    23  ALA23       0.2616
     26  O         84.6450  -49.6920    9.0500 O.2    23  ALA23      -0.2715
     27  CB        83.0670  -52.2180   10.1340 C.3    23  ALA23       0.0334
     28  N         83.6080  -48.9980   10.9240 N.am   24  CYS24      -0.1954
     29  CA        83.5350  -47.6070   10.4890 C.3    24  CYS24       0.1843
     30  C         84.5980  -46.6640   11.1290 C.2    24  CYS24       0.2626
     31  O         85.2860  -45.9180   10.4190 O.2    24  CYS24      -0.2714
     32  CB        82.1030  -47.0940   10.6890 C.3    24  CYS24       0.0997
     33  SG        81.9320  -45.2960   10.7620 S.3    24  CYS24      -0.0797
     34  N         84.7380  -46.7180   12.4500 N.am   25  GLY25      -0.1954
     35  CA        85.5380  -45.7310   13.1750 C.3    25  GLY25       0.1869
     36  C         86.4020  -46.2520   14.3150 C.2    25  GLY25       0.2309
     37  O         86.0820  -47.2650   14.9440 O.2    25  GLY25      -0.2863
     38  N         87.9660  -45.0620   18.0290 N.3    27  VAL27      -0.1245
     39  CA        87.5310  -44.1650   19.0830 C.3    27  VAL27       0.1561
     40  C         88.6670  -43.9280   20.0820 C.2    27  VAL27       0.2260
     41  O         89.2580  -44.8620   20.6220 O.2    27  VAL27      -0.2867
     42  CB        86.2150  -44.6540   19.7520 C.3    27  VAL27       0.0252
     43  CG1       85.7170  -43.6450   20.8000 C.3    27  VAL27       0.0019
     44  CG2       85.1260  -44.9300   18.6670 C.3    27  VAL27       0.0019
     45  N         85.3310  -38.9280   24.5330 N.3    40  ALA40      -0.1245
     46  CA        85.7020  -39.9290   23.5110 C.3    40  ALA40       0.1562
     47  C         85.6280  -39.2140   22.1640 C.2    40  ALA40       0.2260
     48  O         84.7080  -38.4080   21.9210 O.2    40  ALA40      -0.2867
     49  CB        84.7560  -41.0920   23.5210 C.3    40  ALA40       0.0290
     50  N         85.5030  -40.1680   18.1870 N.3    42  LYS42      -0.1245
     51  CA        85.3880  -41.0970   17.0770 C.3    42  LYS42       0.1561
     52  C         85.9920  -40.5180   15.7760 C.2    42  LYS42       0.2260
     53  O         85.6250  -39.4370   15.2930 O.2    42  LYS42      -0.2867
     54  CB        83.9200  -41.5410   16.8730 C.3    42  LYS42       0.0271
     55  CG        83.7800  -42.7540   15.9310 C.3    42  LYS42       0.0035
     56  CD        82.3100  -43.1180   15.7500 C.3    42  LYS42       0.0206
     57  CE        82.0930  -44.1600   14.7130 C.3    42  LYS42       0.1093
     58  NZ        80.6890  -44.7250   14.7980 N.3    42  LYS42      -0.1314
     59  N         73.7140  -41.8440   23.5390 N.3    65  ILE65      -0.1245
     60  CA        74.9700  -41.0560   23.5540 C.3    65  ILE65       0.1561
     61  C         74.7710  -39.5950   23.0790 C.2    65  ILE65       0.2260
     62  O         74.0380  -39.3470   22.1110 O.2    65  ILE65      -0.2867
     63  CB        76.0700  -41.7480   22.6820 C.3    65  ILE65       0.0252
     64  CG1       77.4660  -41.2620   23.0660 C.3    65  ILE65       0.0019
     65  CG2       75.7880  -41.5980   21.1530 C.3    65  ILE65       0.0019
     66  CD1       77.9760  -41.8840   24.3210 C.3    65  ILE65       0.0001
     67  N         82.3540  -37.1540   21.6780 N.3    80  LEU80      -0.1231
     68  CA        81.2440  -37.7790   22.4090 C.3    80  LEU80       0.1693
     69  C         81.5270  -37.7950   23.8890 C.2    80  LEU80       0.2592
     70  O         82.6880  -37.7600   24.3110 O.2    80  LEU80      -0.2718
     71  CB        81.0450  -39.2310   21.9560 C.3    80  LEU80       0.0284
     72  CG        80.7630  -39.4860   20.4740 C.3    80  LEU80       0.0019
     73  CD1       80.9550  -40.9530   20.1610 C.3    80  LEU80       0.0001
     74  CD2       79.3470  -38.9940   20.0380 C.3    80  LEU80       0.0001
     75  N         80.4710  -37.8430   24.6870 N.am   81  GLU81      -0.1966
     76  CA        80.6860  -38.1530   26.0890 C.3    81  GLU81       0.1733
     77  C         81.3580  -39.5120   26.1940 C.2    81  GLU81       0.2616
     78  O         81.1100  -40.4300   25.4090 O.2    81  GLU81      -0.2715
     79  CB        79.3750  -38.0910   26.9090 C.3    81  GLU81       0.0429
     80  CG        78.3680  -39.1790   26.5660 C.3    81  GLU81       0.1163
     81  CD        76.9600  -38.8250   27.0440 C.2    81  GLU81       0.3649
     82  OE1       75.9700  -38.9520   26.2660 O.co2  81  GLU81      -0.2457
     83  OE2       76.8630  -38.3810   28.2010 O.co2  81  GLU81      -0.2457
     84  N         82.2300  -39.6240   27.1730 N.am   82  LEU82      -0.1963
     85  CA        82.9510  -40.8430   27.4240 C.3    82  LEU82       0.1728
     86  C         82.1580  -41.8250   28.2790 C.2    82  LEU82       0.2616
     87  O         81.6260  -41.4750   29.3540 O.2    82  LEU82      -0.2715
     88  CB        84.2930  -40.5350   28.1110 C.3    82  LEU82       0.0311
     89  CG        85.0640  -41.7680   28.5750 C.3    82  LEU82       0.0022
     90  CD1       85.7010  -42.5020   27.3800 C.3    82  LEU82       0.0001
     91  CD2       86.1500  -41.3710   29.6050 C.3    82  LEU82       0.0001
     92  N         82.1510  -43.0710   27.8350 N.am   83  MET83      -0.1977
     93  CA        81.4940  -44.1480   28.5460 C.3    83  MET83       0.1605
     94  C         82.6070  -45.0110   29.1070 C.2    83  MET83       0.2287
     95  O         83.3860  -45.6290   28.3560 O.2    83  MET83      -0.2864
     96  CB        80.5890  -44.9310   27.5930 C.3    83  MET83       0.0413
     97  CG        79.4600  -44.0960   27.0070 C.3    83  MET83       0.0598
     98  SD        78.3030  -43.5140   28.3020 S.3    83  MET83      -0.1393
     99  CE        77.4460  -45.0540   28.5020 C.3    83  MET83       0.0692
    100  N         82.7900  -49.4420   28.9670 N.3    86  GLY86      -0.1210
    101  CA        82.9210  -50.1900   27.7140 C.3    86  GLY86       0.1956
    102  C         81.6280  -50.7380   27.1200 C.2    86  GLY86       0.2611
    103  O         80.5400  -50.2940   27.4690 O.2    86  GLY86      -0.2717
    104  N         81.7620  -51.7210   26.2320 N.am   87  GLU87      -0.1979
    105  CA        80.6630  -52.3300   25.5070 C.3    87  GLU87       0.1602
    106  C         79.8900  -53.3560   26.3210 C.2    87  GLU87       0.2287
    107  O         80.4820  -54.0890   27.0850 O.2    87  GLU87      -0.2864
    108  CB        81.2120  -53.0710   24.2990 C.3    87  GLU87       0.0415
    109  CG        82.0780  -52.2900   23.3950 C.3    87  GLU87       0.1163
    110  CD        82.6390  -53.1390   22.2940 C.2    87  GLU87       0.3649
    111  OE1       83.5410  -52.6760   21.5660 O.co2  87  GLU87      -0.2457
    112  OE2       82.1920  -54.2890   22.1450 O.co2  87  GLU87      -0.2457
    113  N         77.9440  -54.5600   20.8790 N.3   130  GLU130     -0.1231
    114  CA        79.0730  -53.6180   20.6450 C.3   130  GLU130      0.1699
    115  C         78.6670  -52.1100   20.5420 C.2   130  GLU130      0.2592
    116  O         79.5070  -51.2150   20.6470 O.2   130  GLU130     -0.2718
    117  CB        79.9060  -54.0400   19.4070 C.3   130  GLU130      0.0402
    118  CG        79.0580  -54.1100   18.1350 C.3   130  GLU130      0.1161
    119  CD        79.9020  -54.2430   16.8450 C.2   130  GLU130      0.3649
    120  OE1       81.0160  -54.8310   16.8910 O.co2 130  GLU130     -0.2457
    121  OE2       79.4610  -53.7270   15.7880 O.co2 130  GLU130     -0.2457
    122  N         77.3820  -51.8480   20.3040 N.am  131  ASN131     -0.1974
    123  CA        76.8470  -50.4780   20.2170 C.3   131  ASN131      0.1688
    124  C         75.9920  -50.1070   21.4350 C.2   131  ASN131      0.2292
    125  O         75.1250  -49.2380   21.3510 O.2   131  ASN131     -0.2864
    126  CB        76.0310  -50.3120   18.9270 C.3   131  ASN131      0.1181
    127  CG        76.8360  -50.5620   17.7080 C.2   131  ASN131      0.2629
    128  OD1       76.3230  -50.9850   16.6540 O.2   131  ASN131     -0.2716
    129  ND2       78.0990  -50.3030   17.8140 N.am  131  ASN131     -0.0877
    130  N         76.8510  -49.0710   25.2230 N.3   133  LEU133     -0.1245
    131  CA        77.9350  -48.7510   26.1310 C.3   133  LEU133      0.1561
    132  C         77.4350  -48.5860   27.5610 C.2   133  LEU133      0.2260
    133  O         76.3350  -48.0840   27.7920 O.2   133  LEU133     -0.2867
    134  CB        78.7080  -47.5070   25.6510 C.3   133  LEU133      0.0270
    135  CG        79.2680  -47.5510   24.2170 C.3   133  LEU133      0.0019
    136  CD1       80.1890  -46.4100   23.9510 C.3   133  LEU133      0.0001
    137  CD2       79.9820  -48.8650   23.8690 C.3   133  LEU133      0.0001
    138  N         74.6510  -46.2260   21.0840 N.3   146  THR146     -0.1203
    139  CA        75.6340  -45.4940   20.3080 C.3   146  THR146      0.1994
    140  C         75.6220  -46.0150   18.8910 C.2   146  THR146      0.2617
    141  O         74.8380  -46.9270   18.5530 O.2   146  THR146     -0.2717
    142  CB        77.0550  -45.6690   20.8970 C.3   146  THR146      0.1784
    143  OG1       77.4330  -47.0590   20.7980 O.3   146  THR146     -0.2211
    144  CG2       77.0770  -45.2550   22.3540 C.3   146  THR146      0.0376
    145  N         76.4750  -45.4060   18.0720 N.am  147  ASP147     -0.1973
    146  CA        76.7660  -45.8210   16.7030 C.3   147  ASP147      0.1709
    147  C         75.5610  -45.7260   15.7370 C.2   147  ASP147      0.2293
    148  O         74.9230  -46.7200   15.3830 O.2   147  ASP147     -0.2864
    149  CB        77.4290  -47.2040   16.6620 C.3   147  ASP147      0.1436
    150  CG        78.0060  -47.5210   15.2870 C.2   147  ASP147      0.3671
    151  OD1       77.8430  -46.6910   14.3780 O.co2 147  ASP147     -0.2456
    152  OD2       78.6270  -48.5830   15.1000 O.co2 147  ASP147     -0.2456
@<TRIPOS>BOND
     1    26    25    2
     2    27    24    1
     3    25    24    1
     4    25    28   am
     5    31    30    2
     6    29    32    1
     7    29    28    1
     8    29    30    1
     9    32    33    1
    10    24    23    1
    11    30    34   am
    12    23    21   am
    13    34    35    1
    14    22    21    2
    15    21    20    1
    16    35    36    1
    17    36    37    2
    18   151   150   ar
    19    20    19    1
    20    57    58    1
    21    57    56    1
    22   152   150   ar
    23    19    15   am
    24   150   149    1
    25    53    52    2
    26   148   147    2
    27   147   146    1
    28    56    55    1
    29    52    51    1
    30   121   119   ar
    31    55    54    1
    32    17    18    1
    33    17    14    1
    34    15    14    1
    35    15    16    2
    36   128   127    2
    37   149   146    1
    38   146   145    1
    39   119   120   ar
    40   119   118    1
    41    54    51    1
    42    14    13    1
    43    51    50    1
    44   127   129   am
    45   127   126    1
    46    38    39    1
    47   145   140   am
    48   118   117    1
    49    13    11   am
    50   141   140    2
    51    44    42    1
    52    12    11    2
    53   140   139    1
    54   126   123    1
    55    39    42    1
    56    39    40    1
    57    11    10    1
    58   117   114    1
    59    42    43    1
    60    74    72    1
    61    40    41    2
    62    73    72    1
    63   123   122    1
    64   123   124    1
    65   122   115   am
    66   139   142    1
    67   139   138    1
    68    72    71    1
    69   115   114    1
    70   115   116    2
    71   114   113    1
    72    10     9    1
    73   143   142    1
    74   142   144    1
    75    65    63    1
    76   125   124    2
    77     9     3   am
    78   111   110   ar
    79    67    68    1
    80    48    47    2
    81    71    68    1
    82    62    61    2
    83   112   110   ar
    84    47    46    1
    85   110   109    1
    86    68    69    1
    87    63    64    1
    88    63    60    1
    89     1     2    1
    90     3     4    2
    91     3     2    1
    92    64    66    1
    93    61    60    1
    94   109   108    1
    95    46    49    1
    96    46    45    1
    97     2     5    1
    98    59    60    1
    99   137   135    1
   100    69    70    2
   101    69    75   am
   102     5     6    1
   103   136   135    1
   104   135   134    1
   105   108   105    1
   106    75    76    1
   107     6     7    1
   108     6     8    1
   109   130   131    1
   110    78    77    2
   111   105   104    1
   112   105   106    1
   113   134   131    1
   114    76    77    1
   115    76    79    1
   116   131   132    1
   117    77    84   am
   118   104   102   am
   119    82    81   ar
   120   106   107    2
   121    80    79    1
   122    80    81    1
   123    97    96    1
   124    97    98    1
   125    81    83   ar
   126   102   103    2
   127   102   101    1
   128    84    85    1
   129    90    89    1
   130    85    88    1
   131    85    86    1
   132   132   133    2
   133    96    93    1
   134   101   100    1
   135    92    86   am
   136    92    93    1
   137    88    89    1
   138    86    87    2
   139    98    99    1
   140    95    94    2
   141    93    94    1
   142    89    91    1
