@<TRIPOS>MOLECULE
tmp/2cn8A00.pdb
 127 117 0 0 0
SMALL
GASTEIGER

@<TRIPOS>ATOM
      1  N         -7.9820   52.3960    7.9260 N.3    15  LEU15      -0.1231
      2  CA        -7.9200   51.1570    8.6870 C.3    15  LEU15       0.1693
      3  C         -7.1640   50.0640    7.9110 C.2    15  LEU15       0.2592
      4  O         -7.0740   48.9120    8.3610 O.2    15  LEU15      -0.2718
      5  CB        -9.3050   50.6410    9.0220 C.3    15  LEU15       0.0284
      6  CG       -10.3800   51.3680    9.8290 C.3    15  LEU15       0.0019
      7  CD1      -11.6850   50.4840    9.7930 C.3    15  LEU15       0.0001
      8  CD2       -9.9450   51.7130   11.2530 C.3    15  LEU15       0.0001
      9  N         -6.6420   50.4240    6.7410 N.am   16  GLY16      -0.1957
     10  CA        -5.7350   49.5480    5.9710 C.3    16  GLY16       0.1869
     11  C         -6.0590   49.4430    4.4890 C.2    16  GLY16       0.2309
     12  O         -7.1880   49.7570    4.0850 O.2    16  GLY16      -0.2863
     13  N         -9.8650   50.7690    3.2540 N.3    19  VAL19      -0.1245
     14  CA       -10.9590   50.7700    4.2210 C.3    19  VAL19       0.1561
     15  C        -10.6800   51.9100    5.1400 C.2    19  VAL19       0.2260
     16  O         -9.6040   51.9720    5.7120 O.2    19  VAL19      -0.2867
     17  CB       -11.0480   49.4430    5.0450 C.3    19  VAL19       0.0252
     18  CG1      -12.0090   49.5660    6.2540 C.3    19  VAL19       0.0019
     19  CG2      -11.4760   48.2930    4.1300 C.3    19  VAL19       0.0019
     20  N        -17.2650   51.4290    9.1170 N.3    32  ALA32      -0.1245
     21  CA       -16.0840   51.3160    8.2280 C.3    32  ALA32       0.1562
     22  C        -16.6300   51.4570    6.8320 C.2    32  ALA32       0.2260
     23  O        -17.8180   51.1610    6.6310 O.2    32  ALA32      -0.2867
     24  CB       -15.4090   49.9860    8.3900 C.3    32  ALA32       0.0290
     25  N        -15.6000   50.6350    2.7860 N.3    34  LYS34      -0.1245
     26  CA       -14.6250   49.9930    1.8980 C.3    34  LYS34       0.1561
     27  C        -14.7050   50.7680    0.6080 C.2    34  LYS34       0.2260
     28  O        -15.7780   50.9500    0.0590 O.2    34  LYS34      -0.2867
     29  CB       -14.9070   48.4730    1.6940 C.3    34  LYS34       0.0271
     30  CG       -13.7340   47.6290    1.1200 C.3    34  LYS34       0.0035
     31  CD       -14.1720   46.3200    0.4430 C.3    34  LYS34       0.0206
     32  CE       -12.8920   45.4030    0.0260 C.3    34  LYS34       0.1093
     33  NZ       -12.5860   43.9700    0.6810 N.3    34  LYS34      -0.1314
     34  N        -20.1430   39.6330    7.8320 N.3    56  ILE56      -0.1245
     35  CA       -20.1980   41.0780    7.9150 C.3    56  ILE56       0.1561
     36  C        -21.4880   41.5990    7.2430 C.2    56  ILE56       0.2260
     37  O        -21.9130   41.1440    6.1610 O.2    56  ILE56      -0.2867
     38  CB       -18.9130   41.6770    7.2590 C.3    56  ILE56       0.0252
     39  CG1      -18.5870   43.0570    7.7730 C.3    56  ILE56       0.0019
     40  CG2      -19.0750   41.7630    5.7520 C.3    56  ILE56       0.0019
     41  CD1      -17.8520   43.1300    9.1140 C.3    56  ILE56       0.0001
     42  N        -19.8840   49.4440    6.1250 N.3    71  LEU71      -0.1231
     43  CA       -19.9380   48.1820    6.9220 C.3    71  LEU71       0.1693
     44  C        -19.8460   48.3880    8.4480 C.2    71  LEU71       0.2592
     45  O        -19.3790   49.4460    8.9100 O.2    71  LEU71      -0.2718
     46  CB       -18.7940   47.2540    6.4940 C.3    71  LEU71       0.0284
     47  CG       -18.7080   46.9490    4.9790 C.3    71  LEU71       0.0019
     48  CD1      -17.3020   46.4660    4.5300 C.3    71  LEU71       0.0001
     49  CD2      -19.8390   45.9720    4.5680 C.3    71  LEU71       0.0001
     50  N        -20.2790   47.3810    9.2260 N.am   72  GLU72      -0.1966
     51  CA       -19.9390   47.2680   10.6580 C.3    72  GLU72       0.1733
     52  C        -18.4550   47.6070   10.8550 C.2    72  GLU72       0.2616
     53  O        -17.5940   47.1900   10.0460 O.2    72  GLU72      -0.2715
     54  CB       -20.0820   45.8200   11.0770 C.3    72  GLU72       0.0429
     55  CG       -21.3160   45.3950   11.8470 C.3    72  GLU72       0.1163
     56  CD       -21.8070   44.0020   11.3590 C.2    72  GLU72       0.3649
     57  OE1      -22.4900   43.9340   10.2990 O.co2  72  GLU72      -0.2457
     58  OE2      -21.4860   42.9770   12.0180 O.co2  72  GLU72      -0.2457
     59  N        -18.1330   48.2980   11.9400 N.am   73  LEU73      -0.1963
     60  CA       -16.7460   48.4730   12.2820 C.3    73  LEU73       0.1728
     61  C        -16.3310   47.3000   13.1500 C.2    73  LEU73       0.2616
     62  O        -17.0850   46.9010   14.0180 O.2    73  LEU73      -0.2715
     63  CB       -16.5600   49.7610   13.0510 C.3    73  LEU73       0.0311
     64  CG       -15.1090   49.9740   13.5220 C.3    73  LEU73       0.0022
     65  CD1      -14.1000   50.2530   12.3610 C.3    73  LEU73       0.0001
     66  CD2      -15.0510   51.0560   14.5940 C.3    73  LEU73       0.0001
     67  N        -15.1450   46.7330   12.9190 N.am   74  MET74      -0.1977
     68  CA       -14.6810   45.6210   13.7330 C.3    74  MET74       0.1605
     69  C        -13.4930   46.1010   14.4760 C.2    74  MET74       0.2287
     70  O        -12.4450   46.3010   13.8940 O.2    74  MET74      -0.2864
     71  CB       -14.2740   44.4430   12.8850 C.3    74  MET74       0.0413
     72  CG       -15.3370   43.9620   12.0490 C.3    74  MET74       0.0598
     73  SD       -16.7270   43.3980   13.0210 S.3    74  MET74      -0.1393
     74  CE       -16.2400   41.7700   13.5520 C.3    74  MET74       0.0692
     75  N         -9.6910   44.3760   14.2640 N.3    77  GLY77      -0.1210
     76  CA        -8.7690   44.3510   13.1280 C.3    77  GLY77       0.1956
     77  C         -8.8600   43.0490   12.4080 C.2    77  GLY77       0.2611
     78  O         -9.6250   42.2260   12.7920 O.2    77  GLY77      -0.2717
     79  N         -8.0680   42.8320   11.3660 N.am   78  GLU78      -0.1979
     80  CA        -8.0820   41.5370   10.6360 C.3    78  GLU78       0.1602
     81  C         -7.2540   40.5030   11.3830 C.2    78  GLU78       0.2287
     82  O         -6.3700   40.8490   12.1470 O.2    78  GLU78      -0.2864
     83  CB        -7.6090   41.7130    9.1660 C.3    78  GLU78       0.0415
     84  CG        -8.2730   42.9230    8.4450 C.3    78  GLU78       0.1163
     85  CD        -7.6730   43.2610    7.0910 C.2    78  GLU78       0.3649
     86  OE1       -8.4430   43.6270    6.1530 O.co2  78  GLU78      -0.2457
     87  OE2       -6.4300   43.2260    6.9830 O.co2  78  GLU78      -0.2457
     88  N         -6.6510   37.7750    6.1650 N.3   121  GLU121     -0.1231
     89  CA        -6.8910   39.1720    5.8800 C.3   121  GLU121      0.1699
     90  C         -8.4020   39.4220    5.7880 C.2   121  GLU121      0.2592
     91  O         -8.8470   40.5780    5.8980 O.2   121  GLU121     -0.2718
     92  CB        -6.2090   39.6400    4.5780 C.3   121  GLU121      0.0402
     93  CG        -4.7620   39.0710    4.2100 C.3   121  GLU121      0.1161
     94  CD        -4.0210   40.0040    3.0870 C.2   121  GLU121      0.3649
     95  OE1       -4.7070   40.3660    2.0460 O.co2 121  GLU121     -0.2457
     96  OE2       -2.7890   40.4260    3.2410 O.co2 121  GLU121     -0.2457
     97  N         -9.1940   38.3630    5.6060 N.am  122  ASN122     -0.1974
     98  CA       -10.6700   38.4910    5.4060 C.3   122  ASN122      0.1688
     99  C        -11.4960   37.9410    6.5730 C.2   122  ASN122      0.2292
    100  O        -12.7130   37.6550    6.4380 O.2   122  ASN122     -0.2864
    101  CB       -11.1370   37.8570    4.0890 C.3   122  ASN122      0.1181
    102  CG       -10.7110   38.6750    2.8590 C.2   122  ASN122      0.2629
    103  OD1      -10.3590   39.8640    2.9480 O.2   122  ASN122     -0.2716
    104  ND2      -10.6870   38.0220    1.7080 N.am  122  ASN122     -0.0877
    105  N        -12.3780   39.1670   10.2690 N.3   124  LEU124     -0.1245
    106  CA       -12.3060   40.3160   11.1480 C.3   124  LEU124      0.1561
    107  C        -12.7410   39.9410   12.5570 C.2   124  LEU124      0.2260
    108  O        -13.5750   39.0690   12.7150 O.2   124  LEU124     -0.2867
    109  CB       -13.2500   41.3710   10.6040 C.3   124  LEU124      0.0270
    110  CG       -12.8710   42.2810    9.4710 C.3   124  LEU124      0.0019
    111  CD1      -11.9120   43.2570   10.0630 C.3   124  LEU124      0.0001
    112  CD2      -12.2360   41.4780    8.3550 C.3   124  LEU124      0.0001
    113  N        -15.3740   38.5600    5.6760 N.3   137  THR137     -0.1203
    114  CA       -15.6360   39.6270    4.6660 C.3   137  THR137      0.1994
    115  C        -15.2130   39.2800    3.2220 C.2   137  THR137      0.2617
    116  O        -14.7450   38.1810    2.9280 O.2   137  THR137     -0.2717
    117  CB       -14.9640   41.0060    5.0420 C.3   137  THR137      0.1784
    118  OG1      -13.5620   40.8170    5.3380 O.3   137  THR137     -0.2211
    119  CG2      -15.5530   41.5960    6.2430 C.3   137  THR137      0.0376
    120  N        -15.3870   40.2580    2.3240 N.am  138  ASP138     -0.1973
    121  CA       -14.7540   40.2660    0.9790 C.3   138  ASP138      0.1709
    122  C        -15.3180   39.1990    0.0960 C.2   138  ASP138      0.2293
    123  O        -14.7210   38.0970   -0.0180 O.2   138  ASP138     -0.2864
    124  CB       -13.2260   40.1560    1.0480 C.3   138  ASP138      0.1436
    125  CG       -12.5850   40.0340   -0.3180 C.2   138  ASP138      0.3671
    126  OD1      -13.1580   40.4280   -1.3560 O.co2 138  ASP138     -0.2456
    127  OD2      -11.4540   39.5370   -0.3970 O.co2 138  ASP138     -0.2456
@<TRIPOS>BOND
     1   126   125   ar
     2   127   125   ar
     3   125   124    1
     4   123   122    2
     5    32    31    1
     6    32    33    1
     7    28    27    2
     8   122   121    1
     9    31    30    1
    10    27    26    1
    11   121   124    1
    12   121   120    1
    13    30    29    1
    14    29    26    1
    15   104   102   am
    16    26    25    1
    17    95    94   ar
    18   120   115   am
    19   102   103    2
    20   102   101    1
    21   116   115    2
    22    94    96   ar
    23    94    93    1
    24   115   114    1
    25    13    14    1
    26    12    11    2
    27   101    98    1
    28    19    17    1
    29    93    92    1
    30    14    17    1
    31    14    15    1
    32    11    10    1
    33    48    47    1
    34    49    47    1
    35    92    89    1
    36   114   117    1
    37   114   113    1
    38    47    46    1
    39   117   118    1
    40   117   119    1
    41    17    18    1
    42    15    16    2
    43    98    97    1
    44    98    99    1
    45    97    90   am
    46    40    38    1
    47    90    89    1
    48    90    91    2
    49    89    88    1
    50    10     9    1
    51    42    43    1
    52    86    85   ar
    53    37    36    2
    54   100    99    2
    55    46    43    1
    56    23    22    2
    57     9     3   am
    58    22    21    1
    59    43    44    1
    60    87    85   ar
    61    85    84    1
    62    36    35    1
    63    38    39    1
    64    38    35    1
    65    39    41    1
    66    34    35    1
    67     3     4    2
    68     3     2    1
    69     1     2    1
    70    21    24    1
    71    21    20    1
    72   112   110    1
    73    84    83    1
    74    44    45    2
    75    44    50   am
    76     2     5    1
    77     5     6    1
    78    83    80    1
    79    50    51    1
    80   110   111    1
    81   110   109    1
    82     7     6    1
    83     6     8    1
    84    53    52    2
    85   105   106    1
    86    57    56   ar
    87   109   106    1
    88    80    79    1
    89    80    81    1
    90    51    52    1
    91    51    54    1
    92    52    59   am
    93    54    55    1
    94   106   107    1
    95    56    55    1
    96    56    58   ar
    97    79    77   am
    98    81    82    2
    99    59    60    1
   100    72    71    1
   101    72    73    1
   102    60    63    1
   103    60    61    1
   104    65    64    1
   105    77    78    2
   106    77    76    1
   107   107   108    2
   108    71    68    1
   109    67    61   am
   110    67    68    1
   111    73    74    1
   112    63    64    1
   113    76    75    1
   114    61    62    2
   115    64    66    1
   116    68    69    1
   117    70    69    2
