@<TRIPOS>MOLECULE
tmp/2cnbA00.pdb
 209 201 0 0 0
SMALL
GASTEIGER

@<TRIPOS>ATOM
      1  N         73.4320   61.3740  125.3180 N.3   104  LEU104     -0.1245
      2  CA        72.7460   60.1240  124.9870 C.3   104  LEU104      0.1561
      3  C         71.3020   60.0100  125.5050 C.2   104  LEU104      0.2260
      4  O         70.7380   58.9130  125.6000 O.2   104  LEU104     -0.2867
      5  CB        73.6200   58.9210  125.3970 C.3   104  LEU104      0.0270
      6  CG        74.0780   58.7390  126.8620 C.3   104  LEU104      0.0019
      7  CD1       74.5610   57.3130  127.1240 C.3   104  LEU104      0.0001
      8  CD2       75.1520   59.7240  127.2740 C.3   104  LEU104      0.0001
      9  N         67.8620   60.1290  124.6190 N.3   106  VAL106     -0.1245
     10  CA        66.9800   60.1040  123.4480 C.3   106  VAL106      0.1561
     11  C         65.8300   61.1040  123.5880 C.2   106  VAL106      0.2260
     12  O         65.5390   61.8500  122.6390 O.2   106  VAL106     -0.2867
     13  CB        66.4230   58.6980  123.1590 C.3   106  VAL106      0.0252
     14  CG1       65.2530   58.7830  122.1980 C.3   106  VAL106      0.0019
     15  CG2       67.4930   57.8190  122.5650 C.3   106  VAL106      0.0019
     16  N         74.8530   53.0310  117.9550 N.3   144  SER144     -0.1202
     17  CA        73.6570   52.7200  118.7480 C.3   144  SER144      0.2020
     18  C         72.5210   52.1590  117.9180 C.2   144  SER144      0.2619
     19  O         72.3550   52.5380  116.7510 O.2   144  SER144     -0.2717
     20  CB        73.1600   53.9770  119.4460 C.3   144  SER144      0.2103
     21  OG        71.9370   53.7060  120.0810 O.3   144  SER144     -0.2182
     22  N         71.7160   51.2820  118.5130 N.am  145  ALA145     -0.1965
     23  CA        70.5780   50.7230  117.7870 C.3   145  ALA145      0.1728
     24  C         69.6010   51.8290  117.3780 C.2   145  ALA145      0.2616
     25  O         68.8170   51.6710  116.4650 O.2   145  ALA145     -0.2715
     26  CB        69.8890   49.6790  118.6050 C.3   145  ALA145      0.0334
     27  N         69.6950   52.9680  118.0430 N.am  146  ALA146     -0.1977
     28  CA        68.9180   54.1550  117.6960 C.3   146  ALA146      0.1597
     29  C         68.9990   54.5580  116.2160 C.2   146  ALA146      0.2287
     30  O         68.1680   55.3260  115.7290 O.2   146  ALA146     -0.2864
     31  CB        69.3210   55.3120  118.5870 C.3   146  ALA146      0.0319
     32  N         69.2110   61.9900  118.4290 N.3   169  TYR169     -0.1241
     33  CA        70.3120   61.1780  118.9550 C.3   169  TYR169      0.1605
     34  C         70.6820   60.0680  117.9740 C.2   169  TYR169      0.2264
     35  O         71.8640   59.7860  117.7480 O.2   169  TYR169     -0.2867
     36  CB        69.9770   60.6010  120.3380 C.3   169  TYR169      0.0534
     37  CG        70.9150   59.4940  120.7870 C.ar  169  TYR169     -0.0201
     38  CD1       72.1610   59.7880  121.3490 C.ar  169  TYR169     -0.0009
     39  CD2       70.5710   58.1500  120.6090 C.ar  169  TYR169     -0.0009
     40  CE1       73.0160   58.7860  121.7270 C.ar  169  TYR169      0.0417
     41  CE2       71.4270   57.1380  120.9940 C.ar  169  TYR169      0.0417
     42  CZ        72.6360   57.4670  121.5490 C.ar  169  TYR169      0.1957
     43  OH        73.4770   56.4640  121.9190 O.3   169  TYR169     -0.2866
     44  N         75.8470   49.4450  119.9240 N.3   196  TYR196     -0.1227
     45  CA        75.4030   48.7900  121.1510 C.3   196  TYR196      0.1736
     46  C         73.9180   48.9400  121.1420 C.2   196  TYR196      0.2595
     47  O         73.3970   49.9200  120.6220 O.2   196  TYR196     -0.2718
     48  CB        75.9050   49.4420  122.4430 C.3   196  TYR196      0.0548
     49  CG        77.2940   49.9880  122.4620 C.ar  196  TYR196     -0.0200
     50  CD1       78.3390   49.3130  121.8490 C.ar  196  TYR196     -0.0009
     51  CD2       77.5630   51.1730  123.1530 C.ar  196  TYR196     -0.0009
     52  CE1       79.6250   49.8220  121.8650 C.ar  196  TYR196      0.0417
     53  CE2       78.8480   51.7010  123.1990 C.ar  196  TYR196      0.0417
     54  CZ        79.8840   51.0150  122.5430 C.ar  196  TYR196      0.1957
     55  OH        81.1620   51.5140  122.5730 O.3   196  TYR196     -0.2866
     56  N         73.2260   47.9890  121.7330 N.am  197  PHE197     -0.1962
     57  CA        71.8140   48.1560  121.9680 C.3   197  PHE197      0.1771
     58  C         71.6500   48.7520  123.3580 C.2   197  PHE197      0.2620
     59  O         72.0140   49.9090  123.5620 O.2   197  PHE197     -0.2715
     60  CB        71.1010   46.8250  121.7340 C.3   197  PHE197      0.0574
     61  CG        70.8390   46.5420  120.2630 C.ar  197  PHE197     -0.0200
     62  CD1       71.8940   46.5010  119.3480 C.ar  197  PHE197     -0.0042
     63  CD2       69.5240   46.3660  119.7880 C.ar  197  PHE197     -0.0042
     64  CE1       71.6440   46.2750  118.0000 C.ar  197  PHE197     -0.0003
     65  CE2       69.2680   46.1310  118.4370 C.ar  197  PHE197     -0.0003
     66  CZ        70.3230   46.0950  117.5410 C.ar  197  PHE197     -0.0000
     67  N         71.1500   48.0010  124.3340 N.am  198  ASN198     -0.1958
     68  CA        70.9430   48.6000  125.6520 C.3   198  ASN198      0.1819
     69  C         71.9670   48.1780  126.6930 C.2   198  ASN198      0.2621
     70  O         71.9090   47.0750  127.2700 O.2   198  ASN198     -0.2715
     71  CB        69.5360   48.3630  126.1460 C.3   198  ASN198      0.1195
     72  CG        68.4840   49.0960  125.3160 C.2   198  ASN198      0.2630
     73  OD1       67.3240   48.7140  125.3430 O.2   198  ASN198     -0.2716
     74  ND2       68.8760   50.1450  124.5880 N.am  198  ASN198     -0.0877
     75  N         72.9250   49.0630  126.9120 N.am  199  ALA199     -0.1977
     76  CA        73.9670   48.8300  127.8630 C.3   199  ALA199      0.1597
     77  C         73.3540   48.6460  129.2390 C.2   199  ALA199      0.2287
     78  O         72.4890   49.4370  129.6590 O.2   199  ALA199     -0.2864
     79  CB        74.8840   50.0010  127.8730 C.3   199  ALA199      0.0319
     80  N         68.7850   58.4210  133.0650 N.3   216  THR216     -0.1203
     81  CA        67.5990   58.4480  132.2180 C.3   216  THR216      0.1994
     82  C         67.2160   57.0410  131.7520 C.2   216  THR216      0.2618
     83  O         66.2430   56.8920  131.0270 O.2   216  THR216     -0.2717
     84  CB        67.7730   59.3820  130.9660 C.3   216  THR216      0.1784
     85  OG1       68.8880   58.9410  130.1860 O.3   216  THR216     -0.2211
     86  CG2       67.9900   60.8480  131.3680 C.3   216  THR216      0.0376
     87  N         67.9590   56.0160  132.1770 N.am  217  HIS217     -0.1961
     88  CA        67.7400   54.6390  131.6870 C.3   217  HIS217      0.1787
     89  C         66.8440   53.7810  132.5840 C.2   217  HIS217      0.2620
     90  O         66.7410   54.0410  133.7800 O.2   217  HIS217     -0.2715
     91  CB        69.0860   53.9550  131.4340 C.3   217  HIS217      0.0785
     92  CG        69.9520   54.7140  130.4820 C.ar  217  HIS217      0.0821
     93  ND1       71.1170   55.3410  130.8720 N.ar  217  HIS217     -0.2267
     94  CD2       69.7880   55.0000  129.1690 C.ar  217  HIS217      0.1154
     95  CE1       71.6410   55.9690  129.8340 C.ar  217  HIS217      0.1986
     96  NE2       70.8570   55.7730  128.7880 N.ar  217  HIS217     -0.2212
     97  N         66.2200   52.7530  132.0030 N.am  218  LEU218     -0.1977
     98  CA        65.2530   51.8960  132.7190 C.3   218  LEU218      0.1596
     99  C         65.7680   51.2240  134.0100 C.2   218  LEU218      0.2287
    100  O         65.2480   51.4760  135.1130 O.2   218  LEU218     -0.2864
    101  CB        64.6440   50.8190  131.7950 C.3   218  LEU218      0.0297
    102  CG        63.4010   50.1210  132.3850 C.3   218  LEU218      0.0022
    103  CD1       62.3100   51.1420  132.6580 C.3   218  LEU218      0.0001
    104  CD2       62.8810   49.0130  131.5130 C.3   218  LEU218      0.0001
    105  N         66.8000   53.2890  136.7550 N.3   221  ILE221     -0.1245
    106  CA        65.6630   54.0220  137.3240 C.3   221  ILE221      0.1561
    107  C         64.7840   53.1490  138.2160 C.2   221  ILE221      0.2260
    108  O         64.2870   53.6260  139.2500 O.2   221  ILE221     -0.2867
    109  CB        64.8950   54.8810  136.2610 C.3   221  ILE221      0.0252
    110  CG1       65.6310   56.2290  136.0800 C.3   221  ILE221      0.0019
    111  CG2       63.4110   55.0690  136.6400 C.3   221  ILE221      0.0019
    112  CD1       65.2390   57.0220  134.8360 C.3   221  ILE221      0.0001
    113  N         56.8710   53.1900  140.0820 N.3   237  MET237     -0.1231
    114  CA        57.7490   53.0930  138.8960 C.3   237  MET237      0.1687
    115  C         57.0290   53.4210  137.5810 C.2   237  MET237      0.2434
    116  O         56.1490   52.6620  137.1490 O.2   237  MET237     -0.2733
    117  CB        58.3900   51.6950  138.8120 C.3   237  MET237      0.0400
    118  CG        59.2940   51.4550  137.6010 C.3   237  MET237      0.0596
    119  SD        60.7340   52.5380  137.5850 S.3   237  MET237     -0.1393
    120  CE        61.2310   52.3610  135.8900 C.3   237  MET237      0.0692
    121  N         57.4080   54.5480  136.9430 N.am  238  PRO238     -0.2718
    122  CA        56.8020   54.9940  135.6930 C.3   238  PRO238      0.1535
    123  C         57.1200   54.0960  134.4950 C.2   238  PRO238      0.2598
    124  O         58.2860   53.8350  134.2160 O.2   238  PRO238     -0.2715
    125  CB        57.3970   56.3940  135.4890 C.3   238  PRO238      0.0310
    126  CG        58.6580   56.3920  136.2390 C.3   238  PRO238      0.0237
    127  CD        58.4310   55.4980  137.4170 C.3   238  PRO238      0.0939
    128  N         56.0800   53.6180  133.8140 N.am  239  ILE239     -0.1964
    129  CA        56.2270   52.9730  132.5160 C.3   239  ILE239      0.1727
    130  C         55.9080   54.0040  131.4150 C.2   239  ILE239      0.2616
    131  O         54.8430   54.6240  131.4460 O.2   239  ILE239     -0.2715
    132  CB        55.3030   51.7250  132.3900 C.3   239  ILE239      0.0290
    133  CG1       55.6770   50.6720  133.4480 C.3   239  ILE239      0.0022
    134  CG2       55.3310   51.1620  130.9520 C.3   239  ILE239      0.0023
    135  CD1       54.7880   49.4260  133.4620 C.3   239  ILE239      0.0001
    136  N         56.8310   54.1940  130.4620 N.am  240  PHE240     -0.1974
    137  CA        56.6030   55.1030  129.3270 C.3   240  PHE240      0.1639
    138  C         55.9900   54.4340  128.0860 C.2   240  PHE240      0.2290
    139  O         56.7050   53.9650  127.2000 O.2   240  PHE240     -0.2864
    140  CB        57.8740   55.8490  128.9370 C.3   240  PHE240      0.0560
    141  CG        58.5170   56.6070  130.0700 C.ar  240  PHE240     -0.0200
    142  CD1       57.7790   56.9900  131.1960 C.ar  240  PHE240     -0.0042
    143  CD2       59.8750   56.9670  129.9950 C.ar  240  PHE240     -0.0042
    144  CE1       58.3830   57.6890  132.2330 C.ar  240  PHE240     -0.0003
    145  CE2       60.4890   57.6770  131.0280 C.ar  240  PHE240     -0.0003
    146  CZ        59.7430   58.0360  132.1530 C.ar  240  PHE240     -0.0000
    147  N         57.5400   48.8430  125.0570 N.3   251  CYS251     -0.1235
    148  CA        58.7800   48.7910  124.2870 C.3   251  CYS251      0.1677
    149  C         59.5990   47.5480  124.6360 C.2   251  CYS251      0.2270
    150  O         59.7840   47.2200  125.8200 O.2   251  CYS251     -0.2867
    151  CB        59.6490   50.0180  124.5910 C.3   251  CYS251      0.0956
    152  SG        59.1120   51.6150  123.8840 S.3   251  CYS251     -0.0801
    153  N         63.3890   45.5600  124.1780 N.3   253  ARG253     -0.1245
    154  CA        64.7950   45.9800  124.0880 C.3   253  ARG253      0.1563
    155  C         65.7220   44.7920  124.3390 C.2   253  ARG253      0.2260
    156  O         65.2890   43.7460  124.8140 O.2   253  ARG253     -0.2867
    157  CB        65.0920   47.1350  125.0670 C.3   253  ARG253      0.0307
    158  CG        64.3140   48.4580  124.8270 C.3   253  ARG253      0.0489
    159  CD        64.8880   49.2100  123.6130 C.3   253  ARG253      0.2205
    160  NE        64.2960   50.5260  123.3580 N.pl3 253  ARG253     -0.0865
    161  CZ        63.3010   50.7380  122.4950 C.cat 253  ARG253      0.5346
    162  NH1       62.7820   49.7240  121.8130 N.pl3 253  ARG253      0.1354
    163  NH2       62.8230   51.9600  122.3020 N.pl3 253  ARG253      0.1354
    164  N         69.1430   43.7970  126.2080 N.3   255  TYR255     -0.1241
    165  CA        69.9850   44.2750  127.3270 C.3   255  TYR255      0.1605
    166  C         71.3470   43.5880  127.3900 C.2   255  TYR255      0.2264
    167  O         71.4620   42.4630  127.8800 O.2   255  TYR255     -0.2867
    168  CB        69.2370   44.1280  128.6540 C.3   255  TYR255      0.0534
    169  CG        68.0550   45.0370  128.6940 C.ar  255  TYR255     -0.0201
    170  CD1       66.8100   44.6030  128.2350 C.ar  255  TYR255     -0.0009
    171  CD2       68.1890   46.3560  129.1340 C.ar  255  TYR255     -0.0009
    172  CE1       65.7080   45.4600  128.2300 C.ar  255  TYR255      0.0417
    173  CE2       67.1040   47.2220  129.1390 C.ar  255  TYR255      0.0417
    174  CZ        65.8640   46.7760  128.6890 C.ar  255  TYR255      0.1957
    175  OH        64.7850   47.6330  128.6890 O.3   255  TYR255     -0.2866
    176  N         59.5790   46.3050  128.7460 N.3   297  VAL297     -0.1245
    177  CA        59.6800   47.0890  129.9770 C.3   297  VAL297      0.1561
    178  C         59.0250   46.3490  131.1480 C.2   297  VAL297      0.2260
    179  O         59.5990   46.2580  132.2230 O.2   297  VAL297     -0.2867
    180  CB        59.1510   48.5530  129.8100 C.3   297  VAL297      0.0252
    181  CG1       59.2220   49.3480  131.1220 C.3   297  VAL297      0.0019
    182  CG2       59.9510   49.2920  128.7440 C.3   297  VAL297      0.0019
    183  N         57.5650   58.0390  125.7490 N.3   320  ARG320     -0.1245
    184  CA        58.6250   59.0470  125.6710 C.3   320  ARG320      0.1563
    185  C         58.8710   59.3790  124.1930 C.2   320  ARG320      0.2260
    186  O         58.8460   58.4880  123.3420 O.2   320  ARG320     -0.2867
    187  CB        59.9000   58.5330  126.3410 C.3   320  ARG320      0.0307
    188  CG        60.8320   59.6160  126.9210 C.3   320  ARG320      0.0489
    189  CD        62.2960   59.3510  126.5010 C.3   320  ARG320      0.2205
    190  NE        63.1250   58.5680  127.4360 N.pl3 320  ARG320     -0.0865
    191  CZ        63.5790   57.3180  127.2360 C.cat 320  ARG320      0.5346
    192  NH1       63.2810   56.6250  126.1360 N.pl3 320  ARG320      0.1354
    193  NH2       64.3360   56.7420  128.1620 N.pl3 320  ARG320      0.1354
    194  N         61.0620   56.9150  121.0160 N.3   323  ASP323     -0.1239
    195  CA        61.2500   55.5070  121.3440 C.3   323  ASP323      0.1674
    196  C         60.5870   54.6440  120.2650 C.2   323  ASP323      0.2266
    197  O         59.3750   54.7280  120.0480 O.2   323  ASP323     -0.2867
    198  CB        60.6880   55.1680  122.7490 C.3   323  ASP323      0.1410
    199  CG        61.4640   55.8460  123.8920 C.2   323  ASP323      0.3668
    200  OD1       62.4370   56.5910  123.6220 O.co2 323  ASP323     -0.2456
    201  OD2       61.0910   55.6400  125.0750 O.co2 323  ASP323     -0.2456
    202  N         63.7650   46.9100  119.6080 N.3   327  LEU327     -0.1245
    203  CA        65.1690   46.9810  119.2100 C.3   327  LEU327      0.1561
    204  C         65.9360   45.8050  119.7840 C.2   327  LEU327      0.2260
    205  O         66.4430   45.8660  120.9020 O.2   327  LEU327     -0.2867
    206  CB        65.8130   48.3120  119.6260 C.3   327  LEU327      0.0270
    207  CG        65.4190   49.6230  118.9180 C.3   327  LEU327      0.0019
    208  CD1       66.0390   50.8720  119.6070 C.3   327  LEU327      0.0001
    209  CD2       65.7420   49.5980  117.4080 C.3   327  LEU327      0.0001
@<TRIPOS>BOND
     1    30    29    2
     2    29    28    1
     3    25    24    2
     4    19    18    2
     5    24    23    1
     6    24    27   am
     7   209   207    1
     8    66    64   ar
     9    66    65   ar
    10    28    27    1
    11    28    31    1
    12    35    34    2
    13    23    22    1
    14    23    26    1
    15    18    22   am
    16    18    17    1
    17    16    17    1
    18    34    33    1
    19    64    62   ar
    20    32    33    1
    21    65    63   ar
    22    17    20    1
    23   207   208    1
    24   207   206    1
    25    33    36    1
    26   203   202    1
    27   203   206    1
    28   203   204    1
    29    62    61   ar
    30    20    21    1
    31   204   205    2
    32    63    61   ar
    33    44    45    1
    34   197   196    2
    35    61    60    1
    36   196   195    1
    37    36    37    1
    38    39    37   ar
    39    39    41   ar
    40    47    46    2
    41    37    38   ar
    42    41    42   ar
    43   194   195    1
    44    46    45    1
    45    46    56   am
    46    45    48    1
    47   195   198    1
    48    38    40   ar
    49    42    40   ar
    50    42    43    1
    51    56    57    1
    52    60    57    1
    53   162   161    1
    54    50    52   ar
    55    50    49   ar
    56    52    54   ar
    57    57    58    1
    58    14    13    1
    59   163   161    1
    60    48    49    1
    61    49    51   ar
    62   161   160    2
    63    54    55    1
    64    54    53   ar
    65    15    13    1
    66    12    11    2
    67   198   199    1
    68    51    53   ar
    69    13    10    1
    70   186   185    2
    71   160   159    1
    72    58    59    2
    73    58    67   am
    74    10    11    1
    75    10     9    1
    76   159   158    1
    77   200   199   ar
    78   152   151    1
    79   199   201   ar
    80   154   153    1
    81   154   155    1
    82   154   157    1
    83   185   184    1
    84   148   151    1
    85   148   149    1
    86   148   147    1
    87    67    68    1
    88   155   156    2
    89    74    72   am
    90   149   150    2
    91   158   157    1
    92     2     1    1
    93     2     5    1
    94     2     3    1
    95    72    73    2
    96    72    71    1
    97     5     6    1
    98     3     4    2
    99    68    71    1
   100    68    69    1
   101   184   183    1
   102   184   187    1
   103   192   191    1
   104   164   165    1
   105   187   188    1
   106   189   188    1
   107   189   190    1
   108    69    75   am
   109    69    70    2
   110     6     7    1
   111     6     8    1
   112    75    76    1
   113   139   138    2
   114   191   190    2
   115   191   193    1
   116   165   166    1
   117   165   168    1
   118   166   167    2
   119    76    79    1
   120    76    77    1
   121   138   137    1
   122   172   170   ar
   123   172   174   ar
   124   170   169   ar
   125   168   169    1
   126   174   175    1
   127   174   173   ar
   128   169   171   ar
   129   182   180    1
   130   176   177    1
   131    96    94   ar
   132    96    95   ar
   133   140   137    1
   134   140   141    1
   135   171   173   ar
   136    94    92   ar
   137    77    78    2
   138   137   136    1
   139   180   177    1
   140   180   181    1
   141    95    93   ar
   142   177   178    1
   143   143   141   ar
   144   143   145   ar
   145   141   142   ar
   146    85    84    1
   147   136   130   am
   148    92    93   ar
   149    92    91    1
   150   134   132    1
   151    84    86    1
   152    84    81    1
   153    83    82    2
   154   145   146   ar
   155   178   179    2
   156   142   144   ar
   157   130   131    2
   158   130   129    1
   159    91    88    1
   160   104   102    1
   161    88    87    1
   162    88    89    1
   163    82    87   am
   164    82    81    1
   165   101   102    1
   166   101    98    1
   167    97    89   am
   168    97    98    1
   169   146   144   ar
   170    81    80    1
   171   102   103    1
   172   132   129    1
   173   132   133    1
   174   129   128    1
   175    89    90    2
   176    98    99    1
   177   133   135    1
   178   128   123   am
   179    99   100    2
   180   124   123    2
   181   123   122    1
   182   112   110    1
   183   125   122    1
   184   125   126    1
   185   122   121    1
   186   120   119    1
   187   110   109    1
   188   126   127    1
   189   109   111    1
   190   109   106    1
   191   105   106    1
   192   121   127    1
   193   121   115   am
   194   116   115    2
   195   106   107    1
   196   115   114    1
   197   119   118    1
   198   118   117    1
   199   107   108    2
   200   117   114    1
   201   114   113    1
