@<TRIPOS>MOLECULE
tmp/2cncA01.pdb
 118 116 0 0 0
SMALL
GASTEIGER

@<TRIPOS>ATOM
      1  N         12.0670   -8.8470   18.2250 N.3    18  ASN18      -0.1240
      2  CA        12.9720   -9.9780   18.2130 C.3    18  ASN18       0.1653
      3  C         12.2800  -11.1850   17.5710 C.2    18  ASN18       0.2266
      4  O         11.1050  -11.1270   17.2330 O.2    18  ASN18      -0.2867
      5  CB        13.5170  -10.3300   19.6180 C.3    18  ASN18       0.1155
      6  CG        12.4280  -10.7750   20.6240 C.2    18  ASN18       0.2627
      7  OD1       11.7030  -11.7230   20.3990 O.2    18  ASN18      -0.2716
      8  ND2       12.3330  -10.0870   21.7240 N.am   18  ASN18      -0.0877
      9  N         14.5090   -6.7730   14.6540 N.3    43  GLU43      -0.1231
     10  CA        15.5310   -6.2940   15.5590 C.3    43  GLU43       0.1699
     11  C         16.9210   -6.8300   15.1440 C.2    43  GLU43       0.2592
     12  O         17.9440   -6.1040   15.2420 O.2    43  GLU43      -0.2718
     13  CB        15.1280   -6.6160   17.0330 C.3    43  GLU43       0.0402
     14  CG        16.1510   -6.1960   18.0250 C.3    43  GLU43       0.1161
     15  CD        15.7960   -6.3980   19.4790 C.2    43  GLU43       0.3649
     16  OE1       14.6400   -6.7600   19.8060 O.co2  43  GLU43      -0.2457
     17  OE2       16.6930   -6.1550   20.3380 O.co2  43  GLU43      -0.2457
     18  N         16.9150   -8.0790   14.6430 N.am   44  ASN44      -0.1974
     19  CA        18.1330   -8.7980   14.2420 C.3    44  ASN44       0.1688
     20  C         18.1110   -9.6390   12.9810 C.2    44  ASN44       0.2292
     21  O         19.1640   -9.9990   12.4890 O.2    44  ASN44      -0.2864
     22  CB        18.6170   -9.7320   15.3740 C.3    44  ASN44       0.1181
     23  CG        19.1200   -8.9770   16.5410 C.2    44  ASN44       0.2629
     24  OD1       19.9510   -8.1250   16.3540 O.2    44  ASN44      -0.2716
     25  ND2       18.6050   -9.2640   17.7630 N.am   44  ASN44      -0.0877
     26  N         19.5620   -8.8130    9.2950 N.3    47  LYS47      -0.1245
     27  CA        20.9740   -8.4890    9.1860 C.3    47  LYS47       0.1561
     28  C         21.8260   -9.5730    8.4600 C.2    47  LYS47       0.2260
     29  O         21.7730  -10.7660    8.8150 O.2    47  LYS47      -0.2867
     30  CB        21.5400   -8.1920   10.5750 C.3    47  LYS47       0.0271
     31  CG        20.7310   -7.1750   11.3460 C.3    47  LYS47       0.0035
     32  CD        21.3540   -6.8810   12.6820 C.3    47  LYS47       0.0206
     33  CE        20.6160   -5.7360   13.3440 C.3    47  LYS47       0.1093
     34  NZ        20.6150   -5.8870   14.7950 N.3    47  LYS47      -0.1314
     35  N         25.6710   -2.6240    6.3700 N.3    84  TRP84      -0.1241
     36  CA        26.0740   -2.1660    7.6660 C.3    84  TRP84       0.1605
     37  C         27.3970   -2.8840    8.0160 C.2    84  TRP84       0.2264
     38  O         27.6940   -3.9670    7.4920 O.2    84  TRP84      -0.2867
     39  CB        24.9470   -2.4930    8.6270 C.3    84  TRP84       0.0550
     40  CG        25.0900   -2.0380   10.0640 C.ar   84  TRP84       0.0003
     41  CD1       25.6680   -0.8760   10.5270 C.ar   84  TRP84       0.0946
     42  CD2       24.5460   -2.6940   11.2140 C.ar   84  TRP84       0.0152
     43  NE1       25.5250   -0.7830   11.8910 N.ar   84  TRP84      -0.2442
     44  CE2       24.8270   -1.8660   12.3450 C.ar   84  TRP84       0.0810
     45  CE3       23.7850   -3.8790   11.3960 C.ar   84  TRP84       0.0012
     46  CZ2       24.4530   -2.2150   13.6760 C.ar   84  TRP84       0.0191
     47  CZ3       23.4370   -4.2220   12.6890 C.ar   84  TRP84       0.0001
     48  CH2       23.7740   -3.3680   13.8330 C.ar   84  TRP84       0.0015
     49  N         28.2010   -4.0230   11.0320 N.3    86  SER86      -0.1202
     50  CA        28.0020   -4.8060   12.2520 C.3    86  SER86       0.2020
     51  C         27.1130   -6.0240   11.9680 C.2    86  SER86       0.2618
     52  O         26.2210   -5.9650   11.1080 O.2    86  SER86      -0.2717
     53  CB        27.3540   -3.9230   13.3210 C.3    86  SER86       0.2103
     54  OG        27.3900   -4.5090   14.6070 O.3    86  SER86      -0.2182
     55  N         27.3470   -7.1180   12.6940 N.am   87  GLN87      -0.1979
     56  CA        26.6080   -8.3560   12.5070 C.3    87  GLN87       0.1601
     57  C         26.6570   -8.9020   11.0790 C.2    87  GLN87       0.2287
     58  O         25.6440   -9.4460   10.5340 O.2    87  GLN87      -0.2864
     59  CB        25.1880   -8.2690   13.0930 C.3    87  GLN87       0.0394
     60  CG        25.2070   -7.9520   14.6200 C.3    87  GLN87       0.0908
     61  CD        23.8320   -7.7070   15.1420 C.2    87  GLN87       0.2608
     62  OE1       23.3430   -6.5570   15.1870 O.2    87  GLN87      -0.2717
     63  NE2       23.1600   -8.7950   15.5070 N.am   87  GLN87      -0.0878
     64  N         12.8510    0.6000   20.1040 N.3   304  TRP304     -0.1241
     65  CA        13.7880   -0.4460   19.8790 C.3   304  TRP304      0.1605
     66  C         13.4870   -1.6280   20.8370 C.2   304  TRP304      0.2264
     67  O         14.3640   -2.1150   21.5550 O.2   304  TRP304     -0.2867
     68  CB        15.2300    0.0550   19.9260 C.3   304  TRP304      0.0550
     69  CG        16.1050   -0.9320   19.1810 C.ar  304  TRP304      0.0003
     70  CD1       17.0390   -1.7830   19.7140 C.ar  304  TRP304      0.0946
     71  CD2       16.0290   -1.2450   17.7730 C.ar  304  TRP304      0.0152
     72  NE1       17.5750   -2.5630   18.7130 N.ar  304  TRP304     -0.2442
     73  CE2       16.9370   -2.2930   17.5290 C.ar  304  TRP304      0.0810
     74  CE3       15.2620   -0.7530   16.7040 C.ar  304  TRP304      0.0012
     75  CZ2       17.1240   -2.8370   16.2470 C.ar  304  TRP304      0.0191
     76  CZ3       15.4300   -1.3080   15.4420 C.ar  304  TRP304      0.0001
     77  CH2       16.3600   -2.3330   15.2270 C.ar  304  TRP304      0.0015
     78  N         12.9990   -7.0200   27.3970 N.3   310  ALA310     -0.1231
     79  CA        13.4640   -7.4060   26.0870 C.3   310  ALA310      0.1694
     80  C         14.2160   -6.2790   25.4130 C.2   310  ALA310      0.2593
     81  O         14.3630   -6.2710   24.2060 O.2   310  ALA310     -0.2718
     82  CB        12.3550   -7.8130   25.3090 C.3   310  ALA310      0.0304
     83  N         14.6620   -5.3110   26.1930 N.am  311  SER311     -0.1938
     84  CA        15.4750   -4.2800   25.7240 C.3   311  SER311      0.2055
     85  C         16.9460   -4.7180   25.6410 C.2   311  SER311      0.2643
     86  O         17.4790   -5.3920   26.5420 O.2   311  SER311     -0.2714
     87  CB        15.3560   -3.1130   26.6740 C.3   311  SER311      0.2130
     88  OG        15.7700   -1.9500   25.9950 O.3   311  SER311     -0.2179
     89  N         17.5970   -4.2960   24.5660 N.am  312  TRP312     -0.1973
     90  CA        18.9950   -4.5660   24.2970 C.3   312  TRP312      0.1640
     91  C         19.9160   -3.7770   25.2480 C.2   312  TRP312      0.2290
     92  O         21.0620   -4.1590   25.4890 O.2   312  TRP312     -0.2864
     93  CB        19.3410   -4.2290   22.8280 C.3   312  TRP312      0.0576
     94  CG        19.4380   -2.7700   22.5960 C.ar  312  TRP312      0.0006
     95  CD1       18.4650   -1.8590   22.7700 C.ar  312  TRP312      0.0946
     96  CD2       20.5820   -2.0580   22.1170 C.ar  312  TRP312      0.0152
     97  NE1       18.9150   -0.6170   22.4420 N.ar  312  TRP312     -0.2442
     98  CE2       20.2300   -0.7050   22.0730 C.ar  312  TRP312      0.0810
     99  CE3       21.8820   -2.4420   21.7290 C.ar  312  TRP312      0.0012
    100  CZ2       21.1120    0.2700   21.6510 C.ar  312  TRP312      0.0191
    101  CZ3       22.7290   -1.4940   21.3160 C.ar  312  TRP312      0.0001
    102  CH2       22.3670   -0.1510   21.2910 C.ar  312  TRP312      0.0015
    103  N         19.6810   -3.7130   28.3060 N.3   314  ASN314     -0.1225
    104  CA        19.9410   -4.4750   29.5050 C.3   314  ASN314      0.1785
    105  C         21.3220   -5.0540   29.4160 C.2   314  ASN314      0.2597
    106  O         21.9880   -5.2500   30.4650 O.2   314  ASN314     -0.2718
    107  CB        18.9170   -5.5880   29.7420 C.3   314  ASN314      0.1169
    108  CG        17.5120   -5.0700   30.0810 C.2   314  ASN314      0.2627
    109  OD1       17.3200   -4.0390   30.7410 O.2   314  ASN314     -0.2716
    110  ND2       16.5340   -5.8030   29.6440 N.am  314  ASN314     -0.0877
    111  N         21.7520   -5.3290   28.1690 N.am  315  ASP315     -0.1974
    112  CA        23.1500   -5.7850   27.9380 C.3   315  ASP315      0.1709
    113  C         24.1170   -4.8500   27.2520 C.2   315  ASP315      0.2293
    114  O         25.2400   -5.1870   27.1670 O.2   315  ASP315     -0.2864
    115  CB        23.2040   -7.1520   27.2360 C.3   315  ASP315      0.1436
    116  CG        22.4510   -8.2000   27.9850 C.2   315  ASP315      0.3671
    117  OD1       22.4590   -8.2030   29.2350 O.co2 315  ASP315     -0.2456
    118  OD2       21.8010   -9.0340   27.3510 O.co2 315  ASP315     -0.2456
@<TRIPOS>BOND
     1    35    36    1
     2    38    37    2
     3    36    37    1
     4    36    39    1
     5    28    29    2
     6    28    27    1
     7    39    40    1
     8    27    26    1
     9    27    30    1
    10    40    41   ar
    11    40    42   ar
    12    41    43   ar
    13    58    57    2
    14    30    31    1
    15    49    50    1
    16    57    56    1
    17    52    51    2
    18    42    45   ar
    19    42    44   ar
    20    31    32    1
    21    45    47   ar
    22    43    44   ar
    23    51    50    1
    24    51    55   am
    25    50    53    1
    26    44    46   ar
    27    21    20    2
    28    56    55    1
    29    56    59    1
    30    32    33    1
    31    47    48   ar
    32    20    19    1
    33    59    60    1
    34    53    54    1
    35    33    34    1
    36    46    48   ar
    37    19    18    1
    38    19    22    1
    39    60    61    1
    40    18    11   am
    41     9    10    1
    42    61    62    2
    43    61    63   am
    44    11    12    2
    45    11    10    1
    46    77    76   ar
    47    77    75   ar
    48    22    23    1
    49    76    74   ar
    50    10    13    1
    51    75    73   ar
    52    24    23    2
    53    23    25   am
    54    74    71   ar
    55    13    14    1
    56     4     3    2
    57    73    71   ar
    58    73    72   ar
    59     3     2    1
    60    71    69   ar
    61    14    15    1
    62     2     1    1
    63     2     5    1
    64    72    70   ar
    65    69    70   ar
    66    69    68    1
    67    15    16   ar
    68    15    17   ar
    69     5     6    1
    70    65    68    1
    71    65    64    1
    72    65    66    1
    73     7     6    2
    74     6     8   am
    75    66    67    2
    76   102   101   ar
    77   102   100   ar
    78   101    99   ar
    79   100    98   ar
    80    99    96   ar
    81    98    96   ar
    82    98    97   ar
    83    96    94   ar
    84    97    95   ar
    85    94    95   ar
    86    94    93    1
    87    93    90    1
    88    81    80    2
    89    90    89    1
    90    90    91    1
    91    89    85   am
    92    91    92    2
    93    82    79    1
    94    80    79    1
    95    80    83   am
    96    85    84    1
    97    85    86    2
    98    84    83    1
    99    84    87    1
   100    88    87    1
   101    79    78    1
   102   114   113    2
   103   115   112    1
   104   115   116    1
   105   113   112    1
   106   118   116   ar
   107   112   111    1
   108   116   117   ar
   109   111   105   am
   110   103   104    1
   111   105   104    1
   112   105   106    2
   113   104   107    1
   114   110   108   am
   115   107   108    1
   116   108   109    2
