@<TRIPOS>MOLECULE
tmp/2cncA00.pdb
 137 133 0 0 0
SMALL
GASTEIGER

@<TRIPOS>ATOM
      1  N         14.5090   -6.7730   14.6540 N.3    43  GLU43      -0.1231
      2  CA        15.5310   -6.2940   15.5590 C.3    43  GLU43       0.1699
      3  C         16.9210   -6.8300   15.1440 C.2    43  GLU43       0.2592
      4  O         17.9440   -6.1040   15.2420 O.2    43  GLU43      -0.2718
      5  CB        15.1280   -6.6160   17.0330 C.3    43  GLU43       0.0402
      6  CG        16.1510   -6.1960   18.0250 C.3    43  GLU43       0.1161
      7  CD        15.7960   -6.3980   19.4790 C.2    43  GLU43       0.3649
      8  OE1       14.6400   -6.7600   19.8060 O.co2  43  GLU43      -0.2457
      9  OE2       16.6930   -6.1550   20.3380 O.co2  43  GLU43      -0.2457
     10  N         16.9150   -8.0790   14.6430 N.am   44  ASN44      -0.1974
     11  CA        18.1330   -8.7980   14.2420 C.3    44  ASN44       0.1688
     12  C         18.1110   -9.6390   12.9810 C.2    44  ASN44       0.2292
     13  O         19.1640   -9.9990   12.4890 O.2    44  ASN44      -0.2864
     14  CB        18.6170   -9.7320   15.3740 C.3    44  ASN44       0.1181
     15  CG        19.1200   -8.9770   16.5410 C.2    44  ASN44       0.2629
     16  OD1       19.9510   -8.1250   16.3540 O.2    44  ASN44      -0.2716
     17  ND2       18.6050   -9.2640   17.7630 N.am   44  ASN44      -0.0877
     18  N         19.5620   -8.8130    9.2950 N.3    47  LYS47      -0.1245
     19  CA        20.9740   -8.4890    9.1860 C.3    47  LYS47       0.1561
     20  C         21.8260   -9.5730    8.4600 C.2    47  LYS47       0.2260
     21  O         21.7730  -10.7660    8.8150 O.2    47  LYS47      -0.2867
     22  CB        21.5400   -8.1920   10.5750 C.3    47  LYS47       0.0271
     23  CG        20.7310   -7.1750   11.3460 C.3    47  LYS47       0.0035
     24  CD        21.3540   -6.8810   12.6820 C.3    47  LYS47       0.0206
     25  CE        20.6160   -5.7360   13.3440 C.3    47  LYS47       0.1093
     26  NZ        20.6150   -5.8870   14.7950 N.3    47  LYS47      -0.1314
     27  N         15.5440   -4.0140    7.9820 N.3    80  HIS80      -0.1241
     28  CA        16.7560   -3.5050    8.6800 C.3    80  HIS80       0.1621
     29  C         17.7920   -4.5910    8.6410 C.2    80  HIS80       0.2264
     30  O         17.4960   -5.6280    9.1440 O.2    80  HIS80      -0.2867
     31  CB        16.3780   -3.1760   10.1260 C.3    80  HIS80       0.0745
     32  CG        17.5340   -2.8180   11.0190 C.ar   80  HIS80       0.0817
     33  ND1       18.1610   -1.5950   10.9690 N.ar   80  HIS80      -0.2268
     34  CD2       18.1170   -3.5030   12.0410 C.ar   80  HIS80       0.1154
     35  CE1       19.1110   -1.5640   11.8920 C.ar   80  HIS80       0.1986
     36  NE2       19.1040   -2.7070   12.5510 N.ar   80  HIS80      -0.2212
     37  N         25.6710   -2.6240    6.3700 N.3    84  TRP84      -0.1241
     38  CA        26.0740   -2.1660    7.6660 C.3    84  TRP84       0.1605
     39  C         27.3970   -2.8840    8.0160 C.2    84  TRP84       0.2264
     40  O         27.6940   -3.9670    7.4920 O.2    84  TRP84      -0.2867
     41  CB        24.9470   -2.4930    8.6270 C.3    84  TRP84       0.0550
     42  CG        25.0900   -2.0380   10.0640 C.ar   84  TRP84       0.0003
     43  CD1       25.6680   -0.8760   10.5270 C.ar   84  TRP84       0.0946
     44  CD2       24.5460   -2.6940   11.2140 C.ar   84  TRP84       0.0152
     45  NE1       25.5250   -0.7830   11.8910 N.ar   84  TRP84      -0.2442
     46  CE2       24.8270   -1.8660   12.3450 C.ar   84  TRP84       0.0810
     47  CE3       23.7850   -3.8790   11.3960 C.ar   84  TRP84       0.0012
     48  CZ2       24.4530   -2.2150   13.6760 C.ar   84  TRP84       0.0191
     49  CZ3       23.4370   -4.2220   12.6890 C.ar   84  TRP84       0.0001
     50  CH2       23.7740   -3.3680   13.8330 C.ar   84  TRP84       0.0015
     51  N         27.3470   -7.1180   12.6940 N.3    87  GLN87      -0.1245
     52  CA        26.6080   -8.3560   12.5070 C.3    87  GLN87       0.1566
     53  C         26.6570   -8.9020   11.0790 C.2    87  GLN87       0.2260
     54  O         25.6440   -9.4460   10.5340 O.2    87  GLN87      -0.2867
     55  CB        25.1880   -8.2690   13.0930 C.3    87  GLN87       0.0367
     56  CG        25.2070   -7.9520   14.6200 C.3    87  GLN87       0.0905
     57  CD        23.8320   -7.7070   15.1420 C.2    87  GLN87       0.2608
     58  OE1       23.3430   -6.5570   15.1870 O.2    87  GLN87      -0.2717
     59  NE2       23.1600   -8.7950   15.5070 N.am   87  GLN87      -0.0878
     60  N         23.3770    1.6210    7.2620 N.3   132  ASN132     -0.1225
     61  CA        23.2110    1.9060    8.6940 C.3   132  ASN132      0.1785
     62  C         24.5940    2.3240    9.2080 C.2   132  ASN132      0.2597
     63  O         25.6010    1.6610    8.9240 O.2   132  ASN132     -0.2718
     64  CB        22.5910    0.6910    9.3910 C.3   132  ASN132      0.1169
     65  CG        22.1080    0.9400   10.8130 C.2   132  ASN132      0.2627
     66  OD1       21.4920    1.9560   11.1240 O.2   132  ASN132     -0.2716
     67  ND2       22.3200   -0.0710   11.6950 N.am  132  ASN132     -0.0877
     68  N         24.6690    3.4920    9.8560 N.am  133  GLU133     -0.1979
     69  CA        25.8660    3.9240   10.6390 C.3   133  GLU133      0.1602
     70  C         27.1860    4.0550    9.8750 C.2   133  GLU133      0.2287
     71  O         28.1670    3.4160   10.2120 O.2   133  GLU133     -0.2864
     72  CB        26.0700    3.0320   11.8510 C.3   133  GLU133      0.0415
     73  CG        24.8050    2.9260   12.7230 C.3   133  GLU133      0.1163
     74  CD        24.8880    1.9030   13.7950 C.2   133  GLU133      0.3649
     75  OE1       25.8380    1.0940   13.8570 O.co2 133  GLU133     -0.2457
     76  OE2       23.9650    1.8750   14.5950 O.co2 133  GLU133     -0.2457
     77  N         20.2490    5.5220    8.1190 N.3   174  ASN174     -0.1240
     78  CA        19.9270    5.3450    9.5300 C.3   174  ASN174      0.1653
     79  C         21.2240    5.5030   10.2890 C.2   174  ASN174      0.2266
     80  O         22.2000    4.8590    9.8960 O.2   174  ASN174     -0.2867
     81  CB        19.3350    3.9370    9.7520 C.3   174  ASN174      0.1155
     82  CG        18.6830    3.7520   11.1080 C.2   174  ASN174      0.2627
     83  OD1       17.8730    4.5630   11.5610 O.2   174  ASN174     -0.2716
     84  ND2       19.0090    2.6470   11.7530 N.am  174  ASN174     -0.0877
     85  N         18.0980    7.1530   14.8730 N.3   207  GLN207     -0.1245
     86  CA        17.9680    6.0420   15.8250 C.3   207  GLN207      0.1566
     87  C         17.2330    6.3890   17.0790 C.2   207  GLN207      0.2260
     88  O         16.3080    5.6920   17.4020 O.2   207  GLN207     -0.2867
     89  CB        19.2880    5.4380   16.1800 C.3   207  GLN207      0.0367
     90  CG        20.0110    4.9640   14.9210 C.3   207  GLN207      0.0905
     91  CD        20.8810    3.7510   15.1210 C.2   207  GLN207      0.2608
     92  OE1       21.1550    3.3330   16.2550 O.2   207  GLN207     -0.2717
     93  NE2       21.3070    3.1680   14.0270 N.am  207  GLN207     -0.0878
     94  N         18.4270    6.2730   20.2690 N.3   209  HIS209     -0.1241
     95  CA        18.9640    5.7770   21.5130 C.3   209  HIS209      0.1621
     96  C         19.3880    6.9440   22.4320 C.2   209  HIS209      0.2264
     97  O         20.5030    7.4560   22.3010 O.2   209  HIS209     -0.2867
     98  CB        20.1330    4.7850   21.2860 C.3   209  HIS209      0.0745
     99  CG        19.7480    3.5740   20.4960 C.ar  209  HIS209      0.0817
    100  ND1       18.8280    2.6510   20.9570 N.ar  209  HIS209     -0.2268
    101  CD2       20.1400    3.1360   19.2710 C.ar  209  HIS209      0.1154
    102  CE1       18.6800    1.6870   20.0660 C.ar  209  HIS209      0.1986
    103  NE2       19.4640    1.9590   19.0340 N.ar  209  HIS209     -0.2212
    104  N         14.9280    3.6940   16.3590 N.3   238  SER238     -0.1217
    105  CA        15.3460    2.7980   17.4180 C.3   238  SER238      0.1889
    106  C         15.1730    3.4130   18.8060 C.2   238  SER238      0.2288
    107  O         16.0080    3.2200   19.6390 O.2   238  SER238     -0.2866
    108  CB        16.8100    2.4380   17.2100 C.3   238  SER238      0.2089
    109  OG        17.0420    2.3030   15.8250 O.3   238  SER238     -0.2183
    110  N         12.8510    0.6000   20.1040 N.3   304  TRP304     -0.1241
    111  CA        13.7880   -0.4460   19.8790 C.3   304  TRP304      0.1605
    112  C         13.4870   -1.6280   20.8370 C.2   304  TRP304      0.2264
    113  O         14.3640   -2.1150   21.5550 O.2   304  TRP304     -0.2867
    114  CB        15.2300    0.0550   19.9260 C.3   304  TRP304      0.0550
    115  CG        16.1050   -0.9320   19.1810 C.ar  304  TRP304      0.0003
    116  CD1       17.0390   -1.7830   19.7140 C.ar  304  TRP304      0.0946
    117  CD2       16.0290   -1.2450   17.7730 C.ar  304  TRP304      0.0152
    118  NE1       17.5750   -2.5630   18.7130 N.ar  304  TRP304     -0.2442
    119  CE2       16.9370   -2.2930   17.5290 C.ar  304  TRP304      0.0810
    120  CE3       15.2620   -0.7530   16.7040 C.ar  304  TRP304      0.0012
    121  CZ2       17.1240   -2.8370   16.2470 C.ar  304  TRP304      0.0191
    122  CZ3       15.4300   -1.3080   15.4420 C.ar  304  TRP304      0.0001
    123  CH2       16.3600   -2.3330   15.2270 C.ar  304  TRP304      0.0015
    124  N         17.5970   -4.2960   24.5660 N.3   312  TRP312     -0.1241
    125  CA        18.9950   -4.5660   24.2970 C.3   312  TRP312      0.1605
    126  C         19.9160   -3.7770   25.2480 C.2   312  TRP312      0.2264
    127  O         21.0620   -4.1590   25.4890 O.2   312  TRP312     -0.2867
    128  CB        19.3410   -4.2290   22.8280 C.3   312  TRP312      0.0550
    129  CG        19.4380   -2.7700   22.5960 C.ar  312  TRP312      0.0003
    130  CD1       18.4650   -1.8590   22.7700 C.ar  312  TRP312      0.0946
    131  CD2       20.5820   -2.0580   22.1170 C.ar  312  TRP312      0.0152
    132  NE1       18.9150   -0.6170   22.4420 N.ar  312  TRP312     -0.2442
    133  CE2       20.2300   -0.7050   22.0730 C.ar  312  TRP312      0.0810
    134  CE3       21.8820   -2.4420   21.7290 C.ar  312  TRP312      0.0012
    135  CZ2       21.1120    0.2700   21.6510 C.ar  312  TRP312      0.0191
    136  CZ3       22.7290   -1.4940   21.3160 C.ar  312  TRP312      0.0001
    137  CH2       22.3670   -0.1510   21.2910 C.ar  312  TRP312      0.0015
@<TRIPOS>BOND
     1    37    38    1
     2    60    61    1
     3    40    39    2
     4    38    39    1
     5    38    41    1
     6    27    28    1
     7    77    78    1
     8    20    21    2
     9    20    19    1
    10    41    42    1
    11    29    28    1
    12    29    30    2
    13    28    31    1
    14    61    62    1
    15    61    64    1
    16    63    62    2
    17    19    18    1
    18    19    22    1
    19    62    68   am
    20    64    65    1
    21    78    81    1
    22    78    79    1
    23    81    82    1
    24    68    69    1
    25    70    71    2
    26    70    69    1
    27    80    79    2
    28    42    43   ar
    29    42    44   ar
    30    31    32    1
    31    43    45   ar
    32    54    53    2
    33    22    23    1
    34    69    72    1
    35    65    66    2
    36    65    67   am
    37    33    32   ar
    38    33    35   ar
    39    32    34   ar
    40    53    52    1
    41    82    83    2
    42    82    84   am
    43    44    47   ar
    44    44    46   ar
    45    23    24    1
    46    47    49   ar
    47    72    73    1
    48    45    46   ar
    49    35    36   ar
    50    34    36   ar
    51    46    48   ar
    52    13    12    2
    53    52    51    1
    54    52    55    1
    55    24    25    1
    56    49    50   ar
    57    73    74    1
    58    12    11    1
    59    55    56    1
    60    25    26    1
    61    48    50   ar
    62    74    75   ar
    63    74    76   ar
    64    93    91   am
    65    11    10    1
    66    11    14    1
    67    56    57    1
    68    10     3   am
    69     1     2    1
    70    85    86    1
    71    90    91    1
    72    90    89    1
    73    91    92    2
    74    57    58    2
    75    57    59   am
    76     3     4    2
    77     3     2    1
    78   123   122   ar
    79   123   121   ar
    80    14    15    1
    81   122   120   ar
    82     2     5    1
    83   109   108    1
    84    86    89    1
    85    86    87    1
    86   121   119   ar
    87    16    15    2
    88   104   105    1
    89    15    17   am
    90   120   117   ar
    91     5     6    1
    92    87    88    2
    93   108   105    1
    94   105   106    1
    95   119   117   ar
    96   119   118   ar
    97   117   115   ar
    98     6     7    1
    99   118   116   ar
   100   106   107    2
   101   103   101   ar
   102   103   102   ar
   103   115   116   ar
   104   115   114    1
   105   101    99   ar
   106     7     8   ar
   107     7     9   ar
   108   111   114    1
   109   111   110    1
   110   111   112    1
   111   102   100   ar
   112    94    95    1
   113    99   100   ar
   114    99    98    1
   115   112   113    2
   116    98    95    1
   117   137   136   ar
   118   137   135   ar
   119   136   134   ar
   120    95    96    1
   121   135   133   ar
   122   134   131   ar
   123   133   131   ar
   124   133   132   ar
   125   131   129   ar
   126    97    96    2
   127   132   130   ar
   128   129   130   ar
   129   129   128    1
   130   128   125    1
   131   125   124    1
   132   125   126    1
   133   126   127    2
