@<TRIPOS>MOLECULE
tmp/2cneA01.pdb
 106 97 0 0 0
SMALL
GASTEIGER

@<TRIPOS>ATOM
      1  N         47.5170   11.5790   33.2090 N.3     8  GLU8       -0.1231
      2  CA        46.6140   10.9170   32.2680 C.3     8  GLU8        0.1699
      3  C         45.6850   11.9170   31.5610 C.2     8  GLU8        0.2592
      4  O         45.4590   11.8020   30.3600 O.2     8  GLU8       -0.2718
      5  CB        45.7770    9.8350   32.9710 C.3     8  GLU8        0.0402
      6  CG        46.5940    8.6500   33.5700 C.3     8  GLU8        0.1161
      7  CD        47.4430    7.8850   32.5430 C.2     8  GLU8        0.3649
      8  OE1       48.5750    8.3200   32.2270 O.co2   8  GLU8       -0.2457
      9  OE2       46.9780    6.8350   32.0430 O.co2   8  GLU8       -0.2457
     10  N         45.1380   12.8720   32.3110 N.am    9  MET9       -0.1979
     11  CA        44.2670   13.9120   31.7480 C.3     9  MET9        0.1605
     12  C         45.0210   14.7440   30.7080 C.2     9  MET9        0.2287
     13  O         44.5310   14.9820   29.6060 O.2     9  MET9       -0.2864
     14  CB        43.8080   14.8660   32.8500 C.3     9  MET9        0.0413
     15  CG        42.5180   14.5200   33.4930 C.3     9  MET9        0.0598
     16  SD        42.3070   15.5840   34.9380 S.3     9  MET9       -0.1393
     17  CE        41.6920   14.3580   36.0710 C.3     9  MET9        0.0692
     18  N         47.7730   13.9520   29.1400 N.3    11  LYS11      -0.1231
     19  CA        48.2120   13.0940   28.0430 C.3    11  LYS11       0.1693
     20  C         47.0400   12.8590   27.0850 C.2    11  LYS11       0.2591
     21  O         47.1820   12.9280   25.8690 O.2    11  LYS11      -0.2718
     22  CB        48.7140   11.7570   28.6070 C.3    11  LYS11       0.0285
     23  CG        49.0450   10.6950   27.5750 C.3    11  LYS11       0.0035
     24  CD        49.6760    9.5030   28.2600 C.3    11  LYS11       0.0206
     25  CE        49.6120    8.2510   27.4060 C.3    11  LYS11       0.1093
     26  NZ        50.0950    7.0500   28.1610 N.3    11  LYS11      -0.1314
     27  N         45.8800   12.5840   27.6510 N.am   12  GLU12      -0.1979
     28  CA        44.6880   12.3490   26.8680 C.3    12  GLU12       0.1602
     29  C         44.3660   13.5990   26.0230 C.2    12  GLU12       0.2287
     30  O         44.0970   13.5070   24.8150 O.2    12  GLU12      -0.2864
     31  CB        43.5660   11.9930   27.8350 C.3    12  GLU12       0.0415
     32  CG        42.2720   11.6760   27.2110 C.3    12  GLU12       0.1163
     33  CD        42.2600   10.3690   26.4230 C.2    12  GLU12       0.3649
     34  OE1       43.2420    9.5800   26.4390 O.co2  12  GLU12      -0.2457
     35  OE2       41.2230   10.1370   25.7850 O.co2  12  GLU12      -0.2457
     36  N         46.7710   13.7440   23.1940 N.3    15  GLN15      -0.1245
     37  CA        46.5480   12.7630   22.1350 C.3    15  GLN15       0.1566
     38  C         45.4130   13.2250   21.2270 C.2    15  GLN15       0.2260
     39  O         45.5020   13.1230   19.9960 O.2    15  GLN15      -0.2867
     40  CB        46.2300   11.3950   22.7470 C.3    15  GLN15       0.0367
     41  CG        47.4140   10.7920   23.5100 C.3    15  GLN15       0.0905
     42  CD        48.5320   10.3680   22.5780 C.2    15  GLN15       0.2608
     43  OE1       48.5180    9.2630   22.0380 O.2    15  GLN15      -0.2717
     44  NE2       49.4910   11.2500   22.3660 N.am   15  GLN15      -0.0878
     45  N         32.2350   19.6550   35.0020 N.3   237  CYS237     -0.1235
     46  CA        33.2850   18.6490   34.9770 C.3   237  CYS237      0.1677
     47  C         34.2880   18.8320   36.1110 C.2   237  CYS237      0.2270
     48  O         34.7840   17.8510   36.6520 O.2   237  CYS237     -0.2867
     49  CB        33.9890   18.6310   33.6180 C.3   237  CYS237      0.0956
     50  SG        32.9320   17.9200   32.3480 S.3   237  CYS237     -0.0801
     51  N         35.1290   16.1970   39.0970 N.3   241  MET241     -0.1245
     52  CA        36.5010   15.8000   39.3900 C.3   241  MET241      0.1570
     53  C         36.8060   15.9360   40.8750 C.2   241  MET241      0.2261
     54  O         37.5360   15.1250   41.4470 O.2   241  MET241     -0.2867
     55  CB        37.5030   16.6520   38.6190 C.3   241  MET241      0.0387
     56  CG        37.3430   16.5900   37.1410 C.3   241  MET241      0.0595
     57  SD        38.9180   16.8530   36.3170 S.3   241  MET241     -0.1393
     58  CE        38.8870   15.4030   35.2240 C.3   241  MET241      0.0692
     59  N         39.7730   10.9790   37.0280 N.3   248  SER248     -0.1217
     60  CA        40.0410   10.7190   35.6210 C.3   248  SER248      0.1889
     61  C         38.9050    9.9430   34.9450 C.2   248  SER248      0.2288
     62  O         38.9790    9.6570   33.7470 O.2   248  SER248     -0.2866
     63  CB        41.3550    9.9430   35.4530 C.3   248  SER248      0.2089
     64  OG        41.2020    8.5790   35.8150 O.3   248  SER248     -0.2183
     65  N         35.8640   11.0710   34.5690 N.3   250  VAL250     -0.1245
     66  CA        34.8800   11.9820   33.9990 C.3   250  VAL250      0.1561
     67  C         34.8750   11.8430   32.4740 C.2   250  VAL250      0.2260
     68  O         35.8990   11.9850   31.8160 O.2   250  VAL250     -0.2867
     69  CB        35.1740   13.4420   34.3980 C.3   250  VAL250      0.0252
     70  CG1       34.1730   14.3580   33.7490 C.3   250  VAL250      0.0019
     71  CG2       35.1260   13.5870   35.9240 C.3   250  VAL250      0.0019
     72  N         33.7240   13.5270   29.3960 N.3   252  ILE252     -0.1245
     73  CA        33.2400   14.8180   28.8940 C.3   252  ILE252      0.1561
     74  C         32.0760   14.7580   27.9040 C.2   252  ILE252      0.2260
     75  O         31.1310   15.5540   27.9960 O.2   252  ILE252     -0.2867
     76  CB        34.4140   15.6680   28.2950 C.3   252  ILE252      0.0252
     77  CG1       33.9400   17.1120   28.1010 C.3   252  ILE252      0.0019
     78  CG2       34.9360   15.0450   26.9650 C.3   252  ILE252      0.0019
     79  CD1       34.9700   18.0520   27.4660 C.3   252  ILE252      0.0001
     80  N         37.5290   21.2100   27.6510 N.3   277  TYR277     -0.1241
     81  CA        38.3980   20.1440   28.1150 C.3   277  TYR277      0.1605
     82  C         39.6640   20.7540   28.7060 C.2   277  TYR277      0.2264
     83  O         40.0860   20.3840   29.8020 O.2   277  TYR277     -0.2867
     84  CB        38.7510   19.2260   26.9470 C.3   277  TYR277      0.0534
     85  CG        39.2160   17.8520   27.3580 C.ar  277  TYR277     -0.0201
     86  CD1       38.5380   16.7090   26.9180 C.ar  277  TYR277     -0.0009
     87  CD2       40.3670   17.6850   28.1410 C.ar  277  TYR277     -0.0009
     88  CE1       38.9940   15.4370   27.2360 C.ar  277  TYR277      0.0417
     89  CE2       40.8360   16.4020   28.4650 C.ar  277  TYR277      0.0417
     90  CZ        40.1390   15.2920   28.0030 C.ar  277  TYR277      0.1957
     91  OH        40.5880   14.0310   28.3060 O.3   277  TYR277     -0.2866
     92  N         39.1370   22.4780   31.9530 N.3   280  VAL280     -0.1231
     93  CA        38.9810   21.5280   33.0350 C.3   280  VAL280      0.1692
     94  C         40.3130   20.9850   33.5310 C.2   280  VAL280      0.2591
     95  O         40.5740   21.0030   34.7360 O.2   280  VAL280     -0.2718
     96  CB        38.0730   20.3540   32.6450 C.3   280  VAL280      0.0266
     97  CG1       38.1320   19.2680   33.7350 C.3   280  VAL280      0.0020
     98  CG2       36.6190   20.8470   32.5190 C.3   280  VAL280      0.0020
     99  N         41.1680   20.5170   32.6250 N.am  281  ILE281     -0.1980
    100  CA        42.4390   19.9600   33.0860 C.3   281  ILE281      0.1595
    101  C         43.3850   21.0080   33.6840 C.2   281  ILE281      0.2287
    102  O         44.2160   20.6870   34.5250 O.2   281  ILE281     -0.2864
    103  CB        43.1610   19.1500   31.9640 C.3   281  ILE281      0.0276
    104  CG1       43.6010   20.0500   30.8180 C.3   281  ILE281      0.0022
    105  CG2       42.2230   18.0780   31.4300 C.3   281  ILE281      0.0022
    106  CD1       44.3210   19.2570   29.7080 C.3   281  ILE281      0.0001
@<TRIPOS>BOND
     1    39    38    2
     2    38    37    1
     3    43    42    2
     4    37    40    1
     5    37    36    1
     6    44    42   am
     7    42    41    1
     8    40    41    1
     9    30    29    2
    10    35    33   ar
    11    21    20    2
    12    29    28    1
    13    33    34   ar
    14    33    32    1
    15    28    27    1
    16    28    31    1
    17    86    88   ar
    18    86    85   ar
    19    84    85    1
    20    84    81    1
    21    78    76    1
    22    20    27   am
    23    20    19    1
    24    32    31    1
    25    88    90   ar
    26    85    87   ar
    27    25    26    1
    28    25    24    1
    29    79    77    1
    30    23    24    1
    31    23    22    1
    32    80    81    1
    33    74    75    2
    34    74    73    1
    35    90    91    1
    36    90    89   ar
    37    19    22    1
    38    19    18    1
    39    77    76    1
    40    81    82    1
    41    87    89   ar
    42    76    73    1
    43    82    83    2
    44    73    72    1
    45    13    12    2
    46   106   104    1
    47     4     3    2
    48    12    11    1
    49   104   103    1
    50   105   103    1
    51     3     2    1
    52     3    10   am
    53    11    10    1
    54    11    14    1
    55    68    67    2
    56    92    93    1
    57   103   100    1
    58     9     7   ar
    59     8     7   ar
    60     2     5    1
    61     2     1    1
    62    50    49    1
    63    67    66    1
    64    98    96    1
    65     7     6    1
    66    99   100    1
    67    99    94   am
    68    96    93    1
    69    96    97    1
    70    14    15    1
    71     5     6    1
    72    93    94    1
    73   100   101    1
    74    15    16    1
    75    94    95    2
    76    49    46    1
    77   101   102    2
    78    62    61    2
    79    70    69    1
    80    66    69    1
    81    66    65    1
    82    69    71    1
    83    16    17    1
    84    61    60    1
    85    46    45    1
    86    46    47    1
    87    58    57    1
    88    63    60    1
    89    63    64    1
    90    60    59    1
    91    47    48    2
    92    57    56    1
    93    56    55    1
    94    55    52    1
    95    51    52    1
    96    52    53    1
    97    53    54    2
