@<TRIPOS>MOLECULE
tmp/2cneA00.pdb
 147 143 0 0 0
SMALL
GASTEIGER

@<TRIPOS>ATOM
      1  N          6.1570   34.4060   19.9930 N.3    47  LYS47      -0.1245
      2  CA         7.1280   34.7150   18.9550 C.3    47  LYS47       0.1561
      3  C          8.0470   35.8780   19.3240 C.2    47  LYS47       0.2260
      4  O          9.2610   35.8030   19.0890 O.2    47  LYS47      -0.2867
      5  CB         6.4450   35.0100   17.6160 C.3    47  LYS47       0.0271
      6  CG         7.4500   35.0260   16.4610 C.3    47  LYS47       0.0035
      7  CD         6.8140   35.3840   15.1240 C.3    47  LYS47       0.0206
      8  CE         6.3500   36.8310   15.1060 C.3    47  LYS47       0.1093
      9  NZ         5.7610   37.2200   13.7920 N.3    47  LYS47      -0.1314
     10  N         11.2680   35.1450   21.7160 N.3    50  ASN50      -0.1225
     11  CA        12.4210   34.3570   21.2790 C.3    50  ASN50       0.1785
     12  C         13.3180   35.1710   20.3720 C.2    50  ASN50       0.2597
     13  O         12.8490   35.8330   19.4490 O.2    50  ASN50      -0.2718
     14  CB        11.9760   33.1070   20.5330 C.3    50  ASN50       0.1169
     15  CG        11.2020   32.1740   21.4130 C.2    50  ASN50       0.2627
     16  OD1       11.6700   31.8090   22.4930 O.2    50  ASN50      -0.2716
     17  ND2       10.0040   31.7810   20.9700 N.am   50  ASN50      -0.0877
     18  N         14.6120   35.1330   20.6360 N.am   51  ARG51      -0.1966
     19  CA        15.5630   35.8680   19.8170 C.3    51  ARG51       0.1729
     20  C         15.8350   35.1300   18.5120 C.2    51  ARG51       0.2616
     21  O         16.0300   35.7540   17.4700 O.2    51  ARG51      -0.2715
     22  CB        16.8720   36.0450   20.5870 C.3    51  ARG51       0.0348
     23  CG        17.9820   36.7520   19.8260 C.3    51  ARG51       0.0492
     24  CD        19.1740   36.9770   20.7720 C.3    51  ARG51       0.2205
     25  NE        18.8980   37.9310   21.8540 N.pl3  51  ARG51      -0.0865
     26  CZ        18.8100   39.2380   21.6560 C.cat  51  ARG51       0.5346
     27  NH1       18.9700   39.7230   20.4270 N.pl3  51  ARG51       0.1354
     28  NH2       18.6050   40.0670   22.6750 N.pl3  51  ARG51       0.1354
     29  N         15.8410   33.8010   18.5700 N.am   52  TYR52      -0.1960
     30  CA        16.1170   32.9810   17.3970 C.3    52  TYR52       0.1771
     31  C         15.0260   31.9230   17.2510 C.2    52  TYR52       0.2619
     32  O         14.6200   31.3180   18.2280 O.2    52  TYR52      -0.2715
     33  CB        17.4860   32.2810   17.5590 C.3    52  TYR52       0.0574
     34  CG        18.6460   33.2360   17.7720 C.ar   52  TYR52      -0.0198
     35  CD1       19.1060   34.0460   16.7410 C.ar   52  TYR52      -0.0009
     36  CD2       19.2680   33.3450   19.0100 C.ar   52  TYR52      -0.0009
     37  CE1       20.1590   34.9390   16.9330 C.ar   52  TYR52       0.0417
     38  CE2       20.3150   34.2410   19.2140 C.ar   52  TYR52       0.0417
     39  CZ        20.7530   35.0320   18.1690 C.ar   52  TYR52       0.1957
     40  OH        21.7910   35.9220   18.3700 O.3    52  TYR52      -0.2866
     41  N         14.5600   31.6810   16.0330 N.am   53  ARG53      -0.1963
     42  CA        13.5330   30.6730   15.8590 C.3    53  ARG53       0.1729
     43  C         14.1170   29.2730   15.9480 C.2    53  ARG53       0.2616
     44  O         13.3880   28.3170   16.1650 O.2    53  ARG53      -0.2715
     45  CB        12.7950   30.8650   14.5320 C.3    53  ARG53       0.0348
     46  CG        13.6180   30.6720   13.2860 C.3    53  ARG53       0.0492
     47  CD        12.7190   30.8460   12.0330 C.3    53  ARG53       0.2205
     48  NE        13.4300   30.5170   10.8000 N.pl3  53  ARG53      -0.0865
     49  CZ        14.3380   31.2970   10.2300 C.cat  53  ARG53       0.5346
     50  NH1       14.6430   32.4570   10.7860 N.pl3  53  ARG53       0.1354
     51  NH2       14.9310   30.9200    9.1040 N.pl3  53  ARG53       0.1354
     52  N         15.4330   29.1420   15.8090 N.am   54  ASP54      -0.1957
     53  CA        16.0500   27.8210   15.8980 C.3    54  ASP54       0.1840
     54  C         16.6240   27.5060   17.2870 C.2    54  ASP54       0.2621
     55  O         17.2870   26.4920   17.4630 O.2    54  ASP54      -0.2715
     56  CB        17.1530   27.6560   14.8210 C.3    54  ASP54       0.1450
     57  CG        18.2910   28.6780   14.9550 C.2    54  ASP54       0.3671
     58  OD1       18.0150   29.8820   15.1340 O.co2  54  ASP54      -0.2456
     59  OD2       19.4770   28.2750   14.8640 O.co2  54  ASP54      -0.2456
     60  N         16.3770   28.3710   18.2720 N.am   55  VAL55      -0.1977
     61  CA        16.8680   28.1270   19.6250 C.3    55  VAL55       0.1596
     62  C         15.6820   28.2670   20.5770 C.2    55  VAL55       0.2287
     63  O         15.1830   29.3770   20.8180 O.2    55  VAL55      -0.2864
     64  CB        17.9850   29.1220   20.0330 C.3    55  VAL55       0.0276
     65  CG1       18.4780   28.7960   21.4670 C.3    55  VAL55       0.0022
     66  CG2       19.1470   29.0280   19.0430 C.3    55  VAL55       0.0022
     67  N         31.2900   35.4520   19.6310 N.3   187  ASP187     -0.1225
     68  CA        30.2610   34.4760   19.2960 C.3   187  ASP187      0.1805
     69  C         30.8870   33.3700   18.4400 C.2   187  ASP187      0.2597
     70  O         31.6650   33.6480   17.5250 O.2   187  ASP187     -0.2718
     71  CB        29.0950   35.1520   18.5550 C.3   187  ASP187      0.1424
     72  CG        29.5340   35.8930   17.3010 C.2   187  ASP187      0.3668
     73  OD1       29.0030   35.5840   16.2260 O.co2 187  ASP187     -0.2456
     74  OD2       30.3940   36.7870   17.3900 O.co2 187  ASP187     -0.2456
     75  N         30.5660   32.1180   18.7740 N.am  188  PHE188     -0.1976
     76  CA        31.1210   30.9410   18.1080 C.3   188  PHE188      0.1639
     77  C         32.6440   30.8810   18.2420 C.2   188  PHE188      0.2290
     78  O         33.3110   30.2090   17.4550 O.2   188  PHE188     -0.2864
     79  CB        30.7140   30.9150   16.6310 C.3   188  PHE188      0.0560
     80  CG        29.2430   30.7490   16.4350 C.ar  188  PHE188     -0.0200
     81  CD1       28.6380   29.5190   16.6330 C.ar  188  PHE188     -0.0042
     82  CD2       28.4550   31.8360   16.0990 C.ar  188  PHE188     -0.0042
     83  CE1       27.2520   29.3790   16.4920 C.ar  188  PHE188     -0.0003
     84  CE2       27.0790   31.7020   15.9610 C.ar  188  PHE188     -0.0003
     85  CZ        26.4820   30.4750   16.1570 C.ar  188  PHE188     -0.0000
     86  N         24.3090   34.0870   27.0440 N.3   221  CYS221     -0.1221
     87  CA        25.1880   34.6480   26.0260 C.3   221  CYS221      0.1808
     88  C         24.1620   35.2430   25.0570 C.2   221  CYS221      0.2602
     89  O         23.2670   35.9450   25.5150 O.2   221  CYS221     -0.2717
     90  CB        26.0900   33.5700   25.3980 C.3   221  CYS221      0.0970
     91  SG        25.3950   31.9320   25.1690 S.3   221  CYS221     -0.0800
     92  N         24.2520   35.0100   23.7520 N.am  222  SER222     -0.1938
     93  CA        23.2430   35.5870   22.8780 C.3   222  SER222      0.2055
     94  C         22.0860   34.6060   22.7180 C.2   222  SER222      0.2643
     95  O         20.9420   34.9480   22.9580 O.2   222  SER222     -0.2714
     96  CB        23.8210   35.9460   21.5070 C.3   222  SER222      0.2130
     97  OG        22.7830   36.5220   20.7360 O.3   222  SER222     -0.2179
     98  N         22.3820   33.3830   22.3120 N.am  223  ALA223     -0.1963
     99  CA        21.3460   32.3570   22.1790 C.3   223  ALA223      0.1728
    100  C         21.2120   31.5670   23.4870 C.2   223  ALA223      0.2617
    101  O         20.2050   30.9000   23.7170 O.2   223  ALA223     -0.2715
    102  CB        21.7120   31.3770   21.0390 C.3   223  ALA223      0.0334
    103  N         22.2410   31.6180   24.3310 N.am  224  GLY224     -0.1940
    104  CA        22.2200   30.8510   25.5730 C.3   224  GLY224      0.2014
    105  C         22.5790   29.3710   25.3950 C.2   224  GLY224      0.2639
    106  O         22.1180   28.5270   26.1610 O.2   224  GLY224     -0.2714
    107  N         23.4100   29.0400   24.4010 N.am  225  ILE225     -0.1963
    108  CA        23.7860   27.6430   24.1890 C.3   225  ILE225      0.1727
    109  C         25.2670   27.3800   23.9050 C.2   225  ILE225      0.2617
    110  O         25.8300   26.4320   24.4400 O.2   225  ILE225     -0.2715
    111  CB        22.9270   26.9720   23.0480 C.3   225  ILE225      0.0290
    112  CG1       23.1610   27.6660   21.6880 C.3   225  ILE225      0.0022
    113  CG2       21.4460   27.0670   23.4150 C.3   225  ILE225      0.0023
    114  CD1       22.4280   27.0170   20.5060 C.3   225  ILE225      0.0001
    115  N         25.9020   28.1930   23.0630 N.am  226  GLY226     -0.1940
    116  CA        27.3010   27.9330   22.7540 C.3   226  GLY226      0.2014
    117  C         28.2440   28.2790   23.9000 C.2   226  GLY226      0.2638
    118  O         28.8780   27.4210   24.5070 O.2   226  GLY226     -0.2714
    119  N         28.3590   29.5600   24.1730 N.am  227  ARG227     -0.1977
    120  CA        29.2140   30.0270   25.2530 C.3   227  ARG227      0.1597
    121  C         28.6920   29.5960   26.6200 C.2   227  ARG227      0.2287
    122  O         29.4500   29.1180   27.4690 O.2   227  ARG227     -0.2864
    123  CB        29.3420   31.5400   25.1390 C.3   227  ARG227      0.0334
    124  CG        30.1940   31.9150   23.9320 C.3   227  ARG227      0.0492
    125  CD        30.0710   33.4000   23.5650 C.3   227  ARG227      0.2205
    126  NE        28.8070   33.6820   22.8630 N.pl3 227  ARG227     -0.0865
    127  CZ        28.4750   34.8830   22.3990 C.cat 227  ARG227      0.5346
    128  NH1       29.3120   35.9120   22.5690 N.pl3 227  ARG227      0.1354
    129  NH2       27.3200   35.0590   21.7560 N.pl3 227  ARG227      0.1354
    130  N         28.7190   25.0510   20.7570 N.3   268  GLN268     -0.1245
    131  CA        28.4630   25.2130   19.3340 C.3   268  GLN268      0.1566
    132  C         29.5500   24.9470   18.3290 C.2   268  GLN268      0.2260
    133  O         29.2660   24.9520   17.1310 O.2   268  GLN268     -0.2867
    134  CB        27.8820   26.6000   19.1020 C.3   268  GLN268      0.0367
    135  CG        26.4120   26.6520   19.4970 C.3   268  GLN268      0.0905
    136  CD        25.5650   25.9440   18.4660 C.2   268  GLN268      0.2608
    137  OE1       25.6180   26.2850   17.2970 O.2   268  GLN268     -0.2717
    138  NE2       24.8080   24.9350   18.8880 N.am  268  GLN268     -0.0878
    139  N         35.1490   24.9480   20.9000 N.3   272  GLN272     -0.1245
    140  CA        34.6040   25.2410   22.2300 C.3   272  GLN272      0.1566
    141  C         34.6540   23.9710   23.0730 C.2   272  GLN272      0.2260
    142  O         34.9290   24.0250   24.2750 O.2   272  GLN272     -0.2867
    143  CB        33.1830   25.7650   22.1290 C.3   272  GLN272      0.0367
    144  CG        33.1280   27.1830   21.5820 C.3   272  GLN272      0.0905
    145  CD        31.7010   27.7060   21.4790 C.2   272  GLN272      0.2608
    146  OE1       30.7600   26.9200   21.4890 O.2   272  GLN272     -0.2717
    147  NE2       31.5420   29.0370   21.3480 N.am  272  GLN272     -0.0878
@<TRIPOS>BOND
     1    51    49    1
     2    49    50    1
     3    49    48    2
     4    48    47    1
     5    47    46    1
     6    46    45    1
     7     9     8    1
     8    45    42    1
     9    56    57    1
    10    56    53    1
    11    59    57   ar
    12    57    58   ar
    13     8     7    1
    14     7     6    1
    15    52    53    1
    16    52    43   am
    17    42    43    1
    18    42    41    1
    19    53    54    1
    20    43    44    2
    21    84    82   ar
    22    84    85   ar
    23    41    31   am
    24    82    80   ar
    25    85    83   ar
    26    73    72   ar
    27    80    79    1
    28    80    81   ar
    29     6     5    1
    30    83    81   ar
    31    79    76    1
    32    35    37   ar
    33    35    34   ar
    34    37    39   ar
    35   133   132    2
    36    31    30    1
    37    31    32    2
    38    54    55    2
    39    54    60   am
    40   137   136    2
    41    72    74   ar
    42    72    71    1
    43    30    33    1
    44    30    29    1
    45    78    77    2
    46    21    20    2
    47    70    69    2
    48    33    34    1
    49     5     2    1
    50    34    36   ar
    51    76    77    1
    52    76    75    1
    53    39    40    1
    54    39    38   ar
    55    60    61    1
    56   132   131    1
    57    69    75   am
    58    69    68    1
    59   136   138   am
    60   136   135    1
    61    20    29   am
    62    20    19    1
    63    71    68    1
    64     2     3    1
    65     2     1    1
    66    36    38   ar
    67    66    64    1
    68     4     3    2
    69   134   131    1
    70   134   135    1
    71    68    67    1
    72   131   130    1
    73    13    12    2
    74    61    64    1
    75    61    62    1
    76    19    22    1
    77    19    18    1
    78    23    22    1
    79    23    24    1
    80    64    65    1
    81    12    18   am
    82    12    11    1
    83    27    26    1
    84   114   112    1
    85    14    11    1
    86    14    15    1
    87    62    63    2
    88    97    96    1
    89    24    25    1
    90   139   140    1
    91    17    15   am
    92   102    99    1
    93    11    10    1
    94   147   145   am
    95    15    16    2
    96   145   146    2
    97   145   144    1
    98    96    93    1
    99   144   143    1
   100    26    25    2
   101    26    28    1
   102   112   111    1
   103   129   127    1
   104   143   140    1
   105    99    98    1
   106    99   100    1
   107   140   141    1
   108    98    94   am
   109   127   128    1
   110   127   126    2
   111    94    93    1
   112    94    95    2
   113   116   115    1
   114   116   117    1
   115   126   125    1
   116    93    92    1
   117   111   113    1
   118   111   108    1
   119   115   109   am
   120   141   142    2
   121   100   101    2
   122   100   103   am
   123   125   124    1
   124    92    88   am
   125   117   119   am
   126   117   118    2
   127   109   108    1
   128   109   110    2
   129   124   123    1
   130   119   120    1
   131   108   107    1
   132   103   104    1
   133   107   105   am
   134    88    89    2
   135    88    87    1
   136   123   120    1
   137    91    90    1
   138   120   121    1
   139   105   104    1
   140   105   106    2
   141    90    87    1
   142    87    86    1
   143   121   122    2
