@<TRIPOS>MOLECULE
tmp/2cnfA00.pdb
 135 130 0 0 0
SMALL
GASTEIGER

@<TRIPOS>ATOM
      1  N          8.4290   11.7320   82.3040 N.3    43  ARG43      -0.1231
      2  CA         8.7170   12.8900   83.1350 C.3    43  ARG43       0.1694
      3  C          8.8610   14.1360   82.2810 C.2    43  ARG43       0.2592
      4  O          8.3790   15.1980   82.6350 O.2    43  ARG43      -0.2718
      5  CB        10.0110   12.6520   83.9140 C.3    43  ARG43       0.0321
      6  CG        10.5260   13.8500   84.7040 C.3    43  ARG43       0.0489
      7  CD        11.6670   13.4110   85.6220 C.3    43  ARG43       0.2205
      8  NE        11.1890   12.4740   86.6390 N.pl3  43  ARG43      -0.0865
      9  CZ        10.4670   12.8210   87.7100 C.cat  43  ARG43       0.5346
     10  NH1       10.1440   14.0910   87.9200 N.pl3  43  ARG43       0.1354
     11  NH2       10.0410   11.8950   88.5660 N.pl3  43  ARG43       0.1354
     12  N          9.5310   13.9870   81.1490 N.am   44  TYR44      -0.1962
     13  CA         9.7720   15.0850   80.2370 C.3    44  TYR44       0.1771
     14  C          9.2690   14.7160   78.8300 C.2    44  TYR44       0.2619
     15  O          9.5910   13.6510   78.2880 O.2    44  TYR44      -0.2715
     16  CB        11.2800   15.3840   80.1950 C.3    44  TYR44       0.0574
     17  CG        11.8990   15.6970   81.5490 C.ar   44  TYR44      -0.0198
     18  CD1       11.5120   16.8190   82.2640 C.ar   44  TYR44      -0.0009
     19  CD2       12.8770   14.8780   82.1010 C.ar   44  TYR44      -0.0009
     20  CE1       12.0720   17.1250   83.4820 C.ar   44  TYR44       0.0417
     21  CE2       13.4490   15.1820   83.3260 C.ar   44  TYR44       0.0417
     22  CZ        13.0380   16.3140   84.0130 C.ar   44  TYR44       0.1957
     23  OH        13.5970   16.6480   85.2330 O.3    44  TYR44      -0.2866
     24  N          8.4950   15.6090   78.2320 N.am   45  ARG45      -0.1963
     25  CA         7.9620   15.3640   76.9020 C.3    45  ARG45       0.1729
     26  C          9.0440   15.3760   75.8090 C.2    45  ARG45       0.2616
     27  O          8.8170   14.8700   74.7140 O.2    45  ARG45      -0.2715
     28  CB         6.9050   16.4100   76.5680 C.3    45  ARG45       0.0348
     29  CG         7.5030   17.7810   76.4220 C.3    45  ARG45       0.0492
     30  CD         6.4920   18.7920   75.9530 C.3    45  ARG45       0.2205
     31  NE         7.0320   20.1210   76.1790 N.pl3  45  ARG45      -0.0865
     32  CZ         6.7550   20.8720   77.2370 C.cat  45  ARG45       0.5346
     33  NH1        5.9210   20.4380   78.1710 N.pl3  45  ARG45       0.1354
     34  NH2        7.3530   22.0440   77.3750 N.pl3  45  ARG45       0.1354
     35  N         10.2120   15.9540   76.1000 N.am   46  ASP46      -0.1957
     36  CA        11.2800   16.0040   75.1100 C.3    46  ASP46       0.1840
     37  C         12.3750   14.9680   75.3430 C.2    46  ASP46       0.2621
     38  O         13.4410   15.0550   74.7390 O.2    46  ASP46      -0.2715
     39  CB        11.8920   17.4170   75.0120 C.3    46  ASP46       0.1450
     40  CG        12.5810   17.8670   76.2990 C.2    46  ASP46       0.3671
     41  OD1       12.0510   17.6370   77.4100 O.co2  46  ASP46      -0.2456
     42  OD2       13.6640   18.4790   76.1890 O.co2  46  ASP46      -0.2456
     43  N         12.1070   13.9950   76.2170 N.am   47  VAL47      -0.1977
     44  CA        13.0540   12.9120   76.4820 C.3    47  VAL47       0.1596
     45  C         12.3170   11.5880   76.3790 C.2    47  VAL47       0.2287
     46  O         11.5530   11.2140   77.2740 O.2    47  VAL47      -0.2864
     47  CB        13.6930   13.0100   77.8800 C.3    47  VAL47       0.0276
     48  CG1       14.6710   11.8310   78.0850 C.3    47  VAL47       0.0022
     49  CG2       14.4270   14.3450   78.0250 C.3    47  VAL47       0.0022
     50  N         12.9330   16.2790   90.8840 N.3   118  LYS118     -0.1245
     51  CA        13.5880   15.5860   89.7690 C.3   118  LYS118      0.1561
     52  C         13.3390   14.0920   89.6650 C.2   118  LYS118      0.2260
     53  O         13.6430   13.4930   88.6270 O.2   118  LYS118     -0.2867
     54  CB        15.1020   15.7740   89.8610 C.3   118  LYS118      0.0271
     55  CG        15.5600   17.2150   89.8770 C.3   118  LYS118      0.0035
     56  CD        15.3410   17.8900   88.5300 C.3   118  LYS118      0.0206
     57  CE        16.1240   19.2000   88.4550 C.3   118  LYS118      0.1093
     58  NZ        17.5890   19.0290   88.7900 N.3   118  LYS118     -0.1314
     59  N         22.9020   18.7890   88.4920 N.3   179  ASP179     -0.1225
     60  CA        22.2170   18.6280   87.2210 C.3   179  ASP179      0.1805
     61  C         22.9050   19.5410   86.1910 C.2   179  ASP179      0.2597
     62  O         23.2440   20.6800   86.4970 O.2   179  ASP179     -0.2718
     63  CB        20.7380   18.9900   87.3700 C.3   179  ASP179      0.1424
     64  CG        19.8710   18.2830   86.3520 C.2   179  ASP179      0.3668
     65  OD1       20.4150   17.4590   85.5940 O.co2 179  ASP179     -0.2456
     66  OD2       18.6580   18.5340   86.3120 O.co2 179  ASP179     -0.2456
     67  N         23.1080   19.0320   84.9770 N.am  180  PHE180     -0.1976
     68  CA        23.8100   19.7640   83.9150 C.3   180  PHE180      0.1639
     69  C         25.2320   20.1140   84.3570 C.2   180  PHE180      0.2290
     70  O         25.8550   21.0270   83.8310 O.2   180  PHE180     -0.2864
     71  CB        23.0540   21.0360   83.5180 C.3   180  PHE180      0.0560
     72  CG        21.7700   20.7700   82.7850 C.ar  180  PHE180     -0.0200
     73  CD1       21.7830   20.3620   81.4520 C.ar  180  PHE180     -0.0042
     74  CD2       20.5490   20.8970   83.4350 C.ar  180  PHE180     -0.0042
     75  CE1       20.6030   20.0830   80.7840 C.ar  180  PHE180     -0.0003
     76  CE2       19.3650   20.6220   82.7810 C.ar  180  PHE180     -0.0003
     77  CZ        19.3820   20.2140   81.4580 C.ar  180  PHE180     -0.0000
     78  N         19.2160    9.3210   86.2380 N.3   213  CYS213     -0.1221
     79  CA        19.4140   10.6040   86.8960 C.3   213  CYS213      0.1808
     80  C         17.9910   11.1650   86.8260 C.2   213  CYS213      0.2602
     81  O         17.0440   10.4710   87.1870 O.2   213  CYS213     -0.2717
     82  CB        20.4210   11.4900   86.1500 C.3   213  CYS213      0.0970
     83  SG        20.3920   11.3920   84.3470 S.3   213  CYS213     -0.0800
     84  N         17.8020   12.3910   86.3700 N.am  214  SER214     -0.1938
     85  CA        16.4310   12.8660   86.2970 C.3   214  SER214      0.2055
     86  C         15.7810   12.4430   84.9790 C.2   214  SER214      0.2642
     87  O         14.6930   11.8830   84.9740 O.2   214  SER214     -0.2714
     88  CB        16.3630   14.3780   86.4750 C.3   214  SER214      0.2130
     89  OG        15.0200   14.7900   86.5300 O.3   214  SER214     -0.2179
     90  N         16.4580   12.6920   83.8660 N.am  215  ALA215     -0.1977
     91  CA        15.9340   12.3270   82.5520 C.3   215  ALA215      0.1597
     92  C         16.5430   11.0390   82.0090 C.2   215  ALA215      0.2287
     93  O         16.0350   10.4710   81.0370 O.2   215  ALA215     -0.2864
     94  CB        16.1820   13.4560   81.5620 C.3   215  ALA215      0.0319
     95  N         19.6670   10.7940   80.7550 N.3   217  ILE217     -0.1231
     96  CA        20.4960   11.0840   79.5890 C.3   217  ILE217      0.1692
     97  C         21.7770   11.8760   79.8670 C.2   217  ILE217      0.2593
     98  O         22.8140   11.5540   79.3220 O.2   217  ILE217     -0.2718
     99  CB        19.6980   11.8340   78.4610 C.3   217  ILE217      0.0266
    100  CG1       19.2470   13.2200   78.9410 C.3   217  ILE217      0.0019
    101  CG2       18.5280   11.0010   78.0280 C.3   217  ILE217      0.0020
    102  CD1       18.5040   14.0650   77.8840 C.3   217  ILE217      0.0001
    103  N         21.7200   12.8990   80.7160 N.am  218  GLY218     -0.1942
    104  CA        22.9040   13.7080   80.9620 C.3   218  GLY218      0.2014
    105  C         23.9370   13.0560   81.8570 C.2   218  GLY218      0.2638
    106  O         24.9860   12.5730   81.3960 O.2   218  GLY218     -0.2714
    107  N         23.6470   13.0630   83.1520 N.am  219  ARG219     -0.1977
    108  CA        24.5450   12.4550   84.1080 C.3   219  ARG219      0.1597
    109  C         24.6830   10.9610   83.7950 C.2   219  ARG219      0.2287
    110  O         25.7860   10.4390   83.8160 O.2   219  ARG219     -0.2864
    111  CB        24.0370   12.7300   85.5300 C.3   219  ARG219      0.0334
    112  CG        24.2910   14.2150   85.9270 C.3   219  ARG219      0.0492
    113  CD        23.5970   14.6370   87.2010 C.3   219  ARG219      0.2205
    114  NE        22.1610   14.8580   86.9920 N.pl3 219  ARG219     -0.0865
    115  CZ        21.3230   15.2690   87.9380 C.cat 219  ARG219      0.5346
    116  NH1       21.7810   15.5170   89.1590 N.pl3 219  ARG219      0.1354
    117  NH2       20.0210   15.3840   87.6790 N.pl3 219  ARG219      0.1354
    118  N         24.6180   15.8750   78.2380 N.3   260  GLN260     -0.1245
    119  CA        23.8470   17.0970   78.0400 C.3   260  GLN260      0.1566
    120  C         24.5830   18.4310   77.9040 C.2   260  GLN260      0.2260
    121  O         23.9500   19.4320   77.5720 O.2   260  GLN260     -0.2867
    122  CB        22.7900   17.1950   79.1410 C.3   260  GLN260      0.0367
    123  CG        21.6060   16.2900   78.8920 C.3   260  GLN260      0.0905
    124  CD        20.6960   16.8300   77.8010 C.2   260  GLN260      0.2608
    125  OE1       20.0120   17.8350   77.9940 O.2   260  GLN260     -0.2717
    126  NE2       20.6980   16.1750   76.6410 N.am  260  GLN260     -0.0878
    127  N         30.3380   18.2120   80.1580 N.3   264  GLN264     -0.1245
    128  CA        30.1970   16.8210   80.5810 C.3   264  GLN264      0.1566
    129  C         31.0310   15.9690   79.6360 C.2   264  GLN264      0.2260
    130  O         31.6290   14.9770   80.0460 O.2   264  GLN264     -0.2867
    131  CB        28.7230   16.3570   80.5800 C.3   264  GLN264      0.0367
    132  CG        27.8770   16.9890   81.6810 C.3   264  GLN264      0.0905
    133  CD        26.4780   16.3780   81.7660 C.2   264  GLN264      0.2608
    134  OE1       25.9130   15.9650   80.7480 O.2   264  GLN264     -0.2717
    135  NE2       25.9110   16.3270   82.9790 N.am  264  GLN264     -0.0878
@<TRIPOS>BOND
     1    27    26    2
     2    38    37    2
     3    39    36    1
     4    39    40    1
     5    36    37    1
     6    36    35    1
     7    37    43   am
     8    26    35   am
     9    26    25    1
    10    30    31    1
    11    30    29    1
    12    31    32    2
    13    42    40   ar
    14    43    44    1
    15    40    41   ar
    16    45    44    1
    17    45    46    2
    18    29    28    1
    19    44    47    1
    20    28    25    1
    21   126   124   am
    22    25    24    1
    23    32    34    1
    24    32    33    1
    25   121   120    2
    26   124   125    2
    27   124   123    1
    28    47    49    1
    29    47    48    1
    30   102   100    1
    31   120   119    1
    32   101    99    1
    33   119   118    1
    34   119   122    1
    35    24    14   am
    36    15    14    2
    37    99   100    1
    38    99    96    1
    39    14    13    1
    40   123   122    1
    41    98    97    2
    42    96    97    1
    43    96    95    1
    44   129   130    2
    45   129   128    1
    46    97   103   am
    47   127   128    1
    48    16    13    1
    49    16    17    1
    50    13    12    1
    51   131   128    1
    52   131   132    1
    53   103   104    1
    54   134   133    2
    55    75    73   ar
    56    75    77   ar
    57   104   105    1
    58    93    92    2
    59    12     3   am
    60   106   105    2
    61    73    72   ar
    62    77    76   ar
    63    17    19   ar
    64    17    18   ar
    65    94    91    1
    66   132   133    1
    67   133   135   am
    68   105   107   am
    69    92    91    1
    70    19    21   ar
    71    18    20   ar
    72     3     4    2
    73     3     2    1
    74     1     2    1
    75    91    90    1
    76    76    74   ar
    77    72    74   ar
    78    72    71    1
    79     2     5    1
    80   107   108    1
    81    21    22   ar
    82    20    22   ar
    83    71    68    1
    84   109   110    2
    85   109   108    1
    86    70    69    2
    87    90    86   am
    88     5     6    1
    89    68    69    1
    90    68    67    1
    91    22    23    1
    92   108   111    1
    93    83    82    1
    94     6     7    1
    95    87    86    2
    96    67    61   am
    97    86    85    1
    98   111   112    1
    99    65    64   ar
   100     7     8    1
   101   112   113    1
   102    82    79    1
   103    61    62    2
   104    61    60    1
   105    78    79    1
   106    85    84    1
   107    85    88    1
   108    66    64   ar
   109    64    63    1
   110    84    80   am
   111    88    89    1
   112     8     9    2
   113    80    79    1
   114    80    81    2
   115   114   113    1
   116   114   115    2
   117    60    63    1
   118    60    59    1
   119   117   115    1
   120     9    10    1
   121     9    11    1
   122   115   116    1
   123    57    56    1
   124    57    58    1
   125    56    55    1
   126    53    52    2
   127    52    51    1
   128    51    54    1
   129    51    50    1
   130    54    55    1
