@<TRIPOS>MOLECULE
tmp/2cngA00.pdb
 135 130 0 0 0
SMALL
GASTEIGER

@<TRIPOS>ATOM
      1  N          4.4020   -1.0800   48.2550 N.3    43  ARG43      -0.1231
      2  CA         3.5690   -0.2430   49.1050 C.3    43  ARG43       0.1694
      3  C          2.5670    0.5580   48.2780 C.2    43  ARG43       0.2592
      4  O          1.4170    0.7380   48.6880 O.2    43  ARG43      -0.2718
      5  CB         4.4480    0.7140   49.9340 C.3    43  ARG43       0.0321
      6  CG         3.6560    1.7630   50.7470 C.3    43  ARG43       0.0489
      7  CD         4.5800    2.5470   51.7000 C.3    43  ARG43       0.2205
      8  NE         5.1780    1.6590   52.6970 N.pl3  43  ARG43      -0.0865
      9  CZ         4.5960    1.3120   53.8440 C.cat  43  ARG43       0.5346
     10  NH1        3.3960    1.7870   54.1650 N.pl3  43  ARG43       0.1354
     11  NH2        5.1980    0.4550   54.6600 N.pl3  43  ARG43       0.1354
     12  N          3.0100    1.0290   47.1110 N.am   44  TYR44      -0.1962
     13  CA         2.1780    1.8260   46.2130 C.3    44  TYR44       0.1771
     14  C          2.2150    1.2690   44.7880 C.2    44  TYR44       0.2619
     15  O          3.2870    1.0470   44.2370 O.2    44  TYR44      -0.2715
     16  CB         2.6680    3.2760   46.1820 C.3    44  TYR44       0.0574
     17  CG         2.7110    3.9510   47.5310 C.ar   44  TYR44      -0.0198
     18  CD1        1.5310    4.3570   48.1700 C.ar   44  TYR44      -0.0009
     19  CD2        3.9240    4.2050   48.1600 C.ar   44  TYR44      -0.0009
     20  CE1        1.5670    5.0080   49.4010 C.ar   44  TYR44       0.0417
     21  CE2        3.9750    4.8490   49.3940 C.ar   44  TYR44       0.0417
     22  CZ         2.7960    5.2480   50.0120 C.ar   44  TYR44       0.1957
     23  OH         2.8480    5.8720   51.2450 O.3    44  TYR44      -0.2866
     24  N          1.0440    1.0690   44.1780 N.am   45  ARG45      -0.1963
     25  CA         0.9870    0.5250   42.8160 C.3    45  ARG45       0.1729
     26  C          1.6300    1.4100   41.7410 C.2    45  ARG45       0.2616
     27  O          2.0280    0.9160   40.6830 O.2    45  ARG45      -0.2715
     28  CB        -0.4770    0.2410   42.4220 C.3    45  ARG45       0.0348
     29  CG        -1.3780    1.4490   42.5750 C.3    45  ARG45       0.0492
     30  CD        -2.7770    1.2170   42.0000 C.3    45  ARG45       0.2205
     31  NE        -3.4910    2.4860   41.9130 N.pl3  45  ARG45      -0.0865
     32  CZ        -4.1500    3.0470   42.9210 C.cat  45  ARG45       0.5346
     33  NH1       -4.2040    2.4380   44.1020 N.pl3  45  ARG45       0.1354
     34  NH2       -4.7260    4.2370   42.7560 N.pl3  45  ARG45       0.1354
     35  N          1.7030    2.7170   41.9890 N.am   46  ASP46      -0.1957
     36  CA         2.2910    3.6400   41.0140 C.3    46  ASP46       0.1840
     37  C          3.7660    3.9670   41.2840 C.2    46  ASP46       0.2621
     38  O          4.3370    4.8230   40.6210 O.2    46  ASP46      -0.2715
     39  CB         1.4770    4.9460   40.9400 C.3    46  ASP46       0.1450
     40  CG         1.3910    5.6580   42.2830 C.2    46  ASP46       0.3671
     41  OD1        1.7030    5.0310   43.3210 O.co2  46  ASP46      -0.2456
     42  OD2        1.0040    6.8510   42.3090 O.co2  46  ASP46      -0.2456
     43  N          4.3880    3.2980   42.2450 N.am   47  VAL47      -0.1977
     44  CA         5.8160    3.5450   42.5070 C.3    47  VAL47       0.1596
     45  C          6.5300    2.2070   42.4570 C.2    47  VAL47       0.2287
     46  O          6.4270    1.4070   43.3800 O.2    47  VAL47      -0.2864
     47  CB         6.0650    4.2160   43.8800 C.3    47  VAL47       0.0276
     48  CG1        7.5920    4.4410   44.1110 C.3    47  VAL47       0.0022
     49  CG2        5.3400    5.5490   43.9310 C.3    47  VAL47       0.0022
     50  N          2.9340    4.9630   56.9640 N.3   118  LYS118     -0.1245
     51  CA         3.7560    5.2510   55.7950 C.3   118  LYS118      0.1561
     52  C          4.9750    4.3440   55.7010 C.2   118  LYS118      0.2260
     53  O          5.6270    4.2800   54.6570 O.2   118  LYS118     -0.2867
     54  CB         4.2410    6.6990   55.8570 C.3   118  LYS118      0.0271
     55  CG         3.1450    7.7330   56.1270 C.3   118  LYS118      0.0035
     56  CD         2.5050    8.2950   54.8420 C.3   118  LYS118      0.0206
     57  CE         1.5450    7.3300   54.1970 C.3   118  LYS118      0.1093
     58  NZ         0.7090    8.0070   53.1450 N.3   118  LYS118     -0.1314
     59  N          5.6410   14.9350   54.5470 N.3   179  ASP179     -0.1225
     60  CA         5.3990   14.2440   53.2790 C.3   179  ASP179      0.1805
     61  C          5.0220   15.2680   52.2040 C.2   179  ASP179      0.2597
     62  O          4.2490   16.1880   52.4670 O.2   179  ASP179     -0.2718
     63  CB         4.2790   13.2230   53.4660 C.3   179  ASP179      0.1424
     64  CG         4.2430   12.1920   52.3570 C.2   179  ASP179      0.3668
     65  OD1        3.2330   11.4700   52.2550 O.co2 179  ASP179     -0.2456
     66  OD2        5.2170   12.1040   51.5840 O.co2 179  ASP179     -0.2456
     67  N          5.5710   15.1150   51.0020 N.am  180  PHE180     -0.1976
     68  CA         5.3300   16.0600   49.9070 C.3   180  PHE180      0.1639
     69  C          5.7520   17.4770   50.2920 C.2   180  PHE180      0.2290
     70  O          5.3640   18.4340   49.6360 O.2   180  PHE180     -0.2864
     71  CB         3.8440   16.0660   49.4870 C.3   180  PHE180      0.0560
     72  CG         3.4310   14.8600   48.6990 C.ar  180  PHE180     -0.0200
     73  CD1        3.7220   14.7670   47.3440 C.ar  180  PHE180     -0.0042
     74  CD2        2.8220   13.7800   49.3280 C.ar  180  PHE180     -0.0042
     75  CE1        3.4200   13.6200   46.6270 C.ar  180  PHE180     -0.0003
     76  CE2        2.5170   12.6290   48.6140 C.ar  180  PHE180     -0.0003
     77  CZ         2.8150   12.5490   47.2690 C.ar  180  PHE180     -0.0000
     78  N         11.9680    6.9980   52.2660 N.3   213  CYS213     -0.1221
     79  CA        10.9410    7.8330   52.8710 C.3   213  CYS213      0.1808
     80  C          9.7490    6.8640   52.8340 C.2   213  CYS213      0.2602
     81  O          9.9130    5.6860   53.1840 O.2   213  CYS213     -0.2717
     82  CB        10.7040    9.1290   52.0740 C.3   213  CYS213      0.0970
     83  SG        10.8140    9.1180   50.2610 S.3   213  CYS213     -0.0800
     84  N          8.5670    7.2980   52.4330 N.am  214  SER214     -0.1938
     85  CA         7.4560    6.3400   52.3630 C.3   214  SER214      0.2055
     86  C          7.4960    5.6090   51.0180 C.2   214  SER214      0.2642
     87  O          7.4700    4.3700   50.9620 O.2   214  SER214     -0.2714
     88  CB         6.1070    7.0440   52.5290 C.3   214  SER214      0.2130
     89  OG         5.0600    6.0890   52.6050 O.3   214  SER214     -0.2179
     90  N          7.5450    6.3600   49.9230 N.am  215  ALA215     -0.1977
     91  CA         7.6140    5.7490   48.6090 C.3   215  ALA215      0.1597
     92  C          9.0620    5.6700   48.0910 C.2   215  ALA215      0.2287
     93  O          9.3440    4.9560   47.1190 O.2   215  ALA215     -0.2864
     94  CB         6.7490    6.5140   47.6220 C.3   215  ALA215      0.0319
     95  N         10.9320    8.2160   46.7930 N.3   217  ILE217     -0.1231
     96  CA        11.1420    9.0360   45.6090 C.3   217  ILE217      0.1692
     97  C         11.0820   10.5490   45.8440 C.2   217  ILE217      0.2593
     98  O         11.8380   11.2740   45.2170 O.2   217  ILE217     -0.2718
     99  CB        10.1260    8.6870   44.4670 C.3   217  ILE217      0.0266
    100  CG1        8.6880    8.9460   44.9600 C.3   217  ILE217      0.0019
    101  CG2       10.3050    7.1950   43.9990 C.3   217  ILE217      0.0020
    102  CD1        7.6440    8.7630   43.8550 C.3   217  ILE217      0.0001
    103  N         10.1970   11.0240   46.7370 N.am  218  GLY218     -0.1942
    104  CA        10.0660   12.4660   46.9770 C.3   218  GLY218      0.2014
    105  C         11.1370   13.0360   47.8850 C.2   218  GLY218      0.2638
    106  O         12.0470   13.7550   47.4520 O.2   218  GLY218     -0.2714
    107  N         11.0310   12.7290   49.1640 N.am  219  ARG219     -0.1977
    108  CA        12.0390   13.1930   50.1030 C.3   219  ARG219      0.1597
    109  C         13.3980   12.5520   49.8190 C.2   219  ARG219      0.2287
    110  O         14.4230   13.2230   49.8600 O.2   219  ARG219     -0.2864
    111  CB        11.5560   12.9350   51.5350 C.3   219  ARG219      0.0334
    112  CG        10.3850   13.8720   51.8800 C.3   219  ARG219      0.0492
    113  CD         9.6130   13.4850   53.1280 C.3   219  ARG219      0.2205
    114  NE         8.7140   12.3520   52.8890 N.pl3 219  ARG219     -0.0865
    115  CZ         7.9310   11.8260   53.8290 C.cat 219  ARG219      0.5346
    116  NH1        7.9550   12.3350   55.0440 N.pl3 219  ARG219      0.1354
    117  NH2        7.1250   10.8090   53.5510 N.pl3 219  ARG219      0.1354
    118  N          9.1630   15.0260   44.0960 N.3   260  GLN260     -0.1245
    119  CA         7.7280   14.9340   43.8520 C.3   260  GLN260      0.1566
    120  C          6.9070   16.2050   43.7570 C.2   260  GLN260      0.2260
    121  O          5.7240   16.1420   43.4560 O.2   260  GLN260     -0.2867
    122  CB         7.1090   13.9970   44.8940 C.3   260  GLN260      0.0367
    123  CG         7.3830   12.5190   44.5890 C.3   260  GLN260      0.0905
    124  CD         6.4210   11.9860   43.5400 C.2   260  GLN260      0.2608
    125  OE1        5.2320   11.8710   43.8060 O.2   260  GLN260     -0.2717
    126  NE2        6.9240   11.6830   42.3480 N.am  260  GLN260     -0.0878
    127  N          9.8870   21.0320   46.0770 N.3   264  GLN264     -0.1245
    128  CA        11.0390   20.2230   46.5200 C.3   264  GLN264      0.1566
    129  C         12.1860   20.5060   45.5560 C.2   264  GLN264      0.2260
    130  O         13.3640   20.5210   45.9480 O.2   264  GLN264     -0.2867
    131  CB        10.6870   18.7320   46.5300 C.3   264  GLN264      0.0367
    132  CG         9.6840   18.3560   47.6400 C.3   264  GLN264      0.0905
    133  CD         9.4170   16.8580   47.6950 C.2   264  GLN264      0.2608
    134  OE1        9.5600   16.1650   46.6930 O.2   264  GLN264     -0.2717
    135  NE2        9.0160   16.3600   48.8600 N.am  264  GLN264     -0.0878
@<TRIPOS>BOND
     1    38    37    2
     2    27    26    2
     3    39    36    1
     4    39    40    1
     5    36    37    1
     6    36    35    1
     7    37    43   am
     8    26    35   am
     9    26    25    1
    10    31    30    1
    11    31    32    2
    12    30    29    1
    13    43    44    1
    14    40    42   ar
    15    40    41   ar
    16   126   124   am
    17    28    29    1
    18    28    25    1
    19    45    44    1
    20    45    46    2
    21    44    47    1
    22    34    32    1
    23    25    24    1
    24    32    33    1
    25   121   120    2
    26   124   125    2
    27   124   123    1
    28   120   119    1
    29   119   118    1
    30   119   122    1
    31   102   100    1
    32    47    49    1
    33    47    48    1
    34   101    99    1
    35    24    14   am
    36    15    14    2
    37    99   100    1
    38    99    96    1
    39   123   122    1
    40    14    13    1
    41    98    97    2
    42   129   130    2
    43   129   128    1
    44    96    97    1
    45    96    95    1
    46    97   103   am
    47   127   128    1
    48    16    13    1
    49    16    17    1
    50    13    12    1
    51   128   131    1
    52   131   132    1
    53    75    77   ar
    54    75    73   ar
    55   134   133    2
    56   103   104    1
    57   104   105    1
    58    12     3   am
    59    93    92    2
    60    77    76   ar
    61    73    72   ar
    62   106   105    2
    63    17    19   ar
    64    17    18   ar
    65    94    91    1
    66   132   133    1
    67   133   135   am
    68   105   107   am
    69    92    91    1
    70    19    21   ar
    71    18    20   ar
    72     1     2    1
    73     3     4    2
    74     3     2    1
    75    91    90    1
    76    76    74   ar
    77    72    74   ar
    78    72    71    1
    79     2     5    1
    80   107   108    1
    81    21    22   ar
    82    20    22   ar
    83    71    68    1
    84    70    69    2
    85   109   110    2
    86   109   108    1
    87    68    69    1
    88    68    67    1
    89    90    86   am
    90     5     6    1
    91    22    23    1
    92   108   111    1
    93    83    82    1
    94     6     7    1
    95    87    86    2
    96    67    61   am
    97    86    85    1
    98   111   112    1
    99    66    64   ar
   100     7     8    1
   101   112   113    1
   102    82    79    1
   103    61    62    2
   104    61    60    1
   105    65    64   ar
   106    78    79    1
   107    64    63    1
   108    85    84    1
   109    85    88    1
   110    84    80   am
   111    88    89    1
   112     8     9    2
   113    80    79    1
   114    80    81    2
   115   114   113    1
   116   114   115    2
   117    58    57    1
   118    60    63    1
   119    60    59    1
   120   117   115    1
   121   115   116    1
   122     9    10    1
   123     9    11    1
   124    57    56    1
   125    53    52    2
   126    56    55    1
   127    52    51    1
   128    51    54    1
   129    51    50    1
   130    54    55    1
