@<TRIPOS>MOLECULE
tmp/2cnhA00.pdb
 115 111 0 0 0
SMALL
GASTEIGER

@<TRIPOS>ATOM
      1  N          9.7950   13.9500   79.1330 N.3    44  TYR44      -0.1227
      2  CA        10.0370   15.1260   78.2960 C.3    44  TYR44       0.1736
      3  C          9.5720   14.8530   76.8620 C.2    44  TYR44       0.2595
      4  O          9.9200   13.8240   76.2640 O.2    44  TYR44      -0.2718
      5  CB        11.5320   15.4730   78.2950 C.3    44  TYR44       0.0548
      6  CG        12.0970   15.7630   79.6740 C.ar   44  TYR44      -0.0200
      7  CD1       11.7190   16.8980   80.3760 C.ar   44  TYR44      -0.0009
      8  CD2       12.9840   14.8820   80.2850 C.ar   44  TYR44      -0.0009
      9  CE1       12.2090   17.1570   81.6620 C.ar   44  TYR44       0.0417
     10  CE2       13.4820   15.1250   81.5650 C.ar   44  TYR44       0.0417
     11  CZ        13.0870   16.2710   82.2460 C.ar   44  TYR44       0.1957
     12  OH        13.5790   16.5330   83.5020 O.3    44  TYR44      -0.2866
     13  N          8.7840   15.7740   76.3160 N.am   45  ARG45      -0.1966
     14  CA         8.2570   15.6150   74.9650 C.3    45  ARG45       0.1729
     15  C          9.3350   15.5800   73.8730 C.2    45  ARG45       0.2616
     16  O          9.1150   15.0200   72.7950 O.2    45  ARG45      -0.2715
     17  CB         7.2410   16.7300   74.6710 C.3    45  ARG45       0.0348
     18  CG         7.8030   17.9040   73.9170 C.3    45  ARG45       0.0492
     19  CD         7.0360   18.0960   72.6100 C.3    45  ARG45       0.2205
     20  NE         7.7220   18.9890   71.6780 N.pl3  45  ARG45      -0.0865
     21  CZ         7.2990   19.2370   70.4410 C.cat  45  ARG45       0.5346
     22  NH1        6.1920   18.6570   69.9900 N.pl3  45  ARG45       0.1354
     23  NH2        7.9840   20.0580   69.6490 N.pl3  45  ARG45       0.1354
     24  N         10.4980   16.1600   74.1470 N.am   46  ASP46      -0.1957
     25  CA        11.5780   16.1810   73.1640 C.3    46  ASP46       0.1840
     26  C         12.6720   15.1280   73.3820 C.2    46  ASP46       0.2621
     27  O         13.7410   15.2010   72.7860 O.2    46  ASP46      -0.2715
     28  CB        12.1940   17.5810   73.0770 C.3    46  ASP46       0.1450
     29  CG        12.8070   18.0460   74.3850 C.2    46  ASP46       0.3671
     30  OD1       12.3570   17.6070   75.4630 O.co2  46  ASP46      -0.2456
     31  OD2       13.7320   18.8850   74.3310 O.co2  46  ASP46      -0.2456
     32  N         12.4180   14.1630   74.2560 N.am   47  VAL47      -0.1977
     33  CA        13.3880   13.0960   74.4690 C.3    47  VAL47       0.1596
     34  C         12.6320   11.7850   74.3890 C.2    47  VAL47       0.2287
     35  O         11.9050   11.4230   75.3220 O.2    47  VAL47      -0.2864
     36  CB        14.0830   13.1810   75.8340 C.3    47  VAL47       0.0276
     37  CG1       15.0820   12.0080   75.9710 C.3    47  VAL47       0.0022
     38  CG2       14.8030   14.5220   75.9660 C.3    47  VAL47       0.0022
     39  N         22.7480   18.9080   86.8860 N.3   179  ASP179     -0.1225
     40  CA        22.0830   18.7800   85.6040 C.3   179  ASP179      0.1805
     41  C         22.7240   19.7130   84.5720 C.2   179  ASP179      0.2597
     42  O         22.9990   20.8790   84.8710 O.2   179  ASP179     -0.2718
     43  CB        20.5880   19.0530   85.7910 C.3   179  ASP179      0.1424
     44  CG        19.7710   18.5680   84.6260 C.2   179  ASP179      0.3668
     45  OD1       20.2970   17.7400   83.8510 O.co2 179  ASP179     -0.2456
     46  OD2       18.6110   18.9990   84.4870 O.co2 179  ASP179     -0.2456
     47  N         22.9710   19.1850   83.3690 N.am  180  PHE180     -0.1976
     48  CA        23.6450   19.9090   82.2790 C.3   180  PHE180      0.1639
     49  C         25.0530   20.3090   82.7260 C.2   180  PHE180      0.2290
     50  O         25.6420   21.2320   82.1730 O.2   180  PHE180     -0.2864
     51  CB        22.8650   21.1650   81.8640 C.3   180  PHE180      0.0560
     52  CG        21.5930   20.8700   81.1130 C.ar  180  PHE180     -0.0200
     53  CD1       21.6270   20.6010   79.7430 C.ar  180  PHE180     -0.0042
     54  CD2       20.3710   20.8600   81.7710 C.ar  180  PHE180     -0.0042
     55  CE1       20.4570   20.3330   79.0410 C.ar  180  PHE180     -0.0003
     56  CE2       19.1910   20.5920   81.0760 C.ar  180  PHE180     -0.0003
     57  CZ        19.2370   20.3290   79.7070 C.ar  180  PHE180     -0.0000
     58  N         19.4370    9.3100   84.2400 N.3   213  CYS213     -0.1221
     59  CA        19.5980   10.5810   84.9240 C.3   213  CYS213      0.1808
     60  C         18.1620   11.1020   84.8590 C.2   213  CYS213      0.2602
     61  O         17.2350   10.3350   85.1480 O.2   213  CYS213     -0.2717
     62  CB        20.6220   11.5100   84.2250 C.3   213  CYS213      0.0970
     63  SG        20.6090   11.5070   82.4020 S.3   213  CYS213     -0.0800
     64  N         17.9300   12.3560   84.4890 N.am  214  SER214     -0.1938
     65  CA        16.5370   12.8030   84.4290 C.3   214  SER214      0.2055
     66  C         15.9440   12.4430   83.0650 C.2   214  SER214      0.2642
     67  O         14.9080   11.7850   82.9920 O.2   214  SER214     -0.2714
     68  CB        16.4240   14.3160   84.6690 C.3   214  SER214      0.2130
     69  OG        15.0510   14.7100   84.8030 O.3   214  SER214     -0.2179
     70  N         16.5920   12.8860   81.9940 N.am  215  ALA215     -0.1977
     71  CA        16.1340   12.5820   80.6390 C.3   215  ALA215      0.1597
     72  C         16.8000   11.3090   80.1070 C.2   215  ALA215      0.2287
     73  O         16.3500   10.7350   79.1240 O.2   215  ALA215     -0.2864
     74  CB        16.4460   13.7570   79.7080 C.3   215  ALA215      0.0319
     75  N         19.9880   11.1450   78.9190 N.3   217  ILE217     -0.1231
     76  CA        20.8040   11.4300   77.7580 C.3   217  ILE217      0.1692
     77  C         22.0620   12.2530   78.0240 C.2   217  ILE217      0.2593
     78  O         23.0900   11.9780   77.4340 O.2   217  ILE217     -0.2718
     79  CB        19.9910   12.1270   76.6260 C.3   217  ILE217      0.0266
     80  CG1       19.4430   13.4690   77.1170 C.3   217  ILE217      0.0019
     81  CG2       18.9010   11.1790   76.0960 C.3   217  ILE217      0.0020
     82  CD1       18.6490   14.2650   76.0540 C.3   217  ILE217      0.0001
     83  N         21.9890   13.2510   78.9080 N.am  218  GLY218     -0.1942
     84  CA        23.1580   14.0770   79.1690 C.3   218  GLY218      0.2014
     85  C         24.1930   13.3980   80.0460 C.2   218  GLY218      0.2638
     86  O         25.2620   12.9820   79.5950 O.2   218  GLY218     -0.2714
     87  N         23.8770   13.3020   81.3290 N.am  219  ARG219     -0.1977
     88  CA        24.7640   12.6660   82.2800 C.3   219  ARG219      0.1597
     89  C         24.9000   11.1840   81.9390 C.2   219  ARG219      0.2287
     90  O         26.0100   10.6420   81.9610 O.2   219  ARG219     -0.2864
     91  CB        24.2250   12.8920   83.7010 C.3   219  ARG219      0.0334
     92  CG        24.3900   14.3830   84.1410 C.3   219  ARG219      0.0492
     93  CD        23.6290   14.7370   85.4080 C.3   219  ARG219      0.2205
     94  NE        22.1900   14.8820   85.1700 N.pl3 219  ARG219     -0.0865
     95  CZ        21.3180   15.2420   86.1080 C.cat 219  ARG219      0.5346
     96  NH1       21.7530   15.4860   87.3390 N.pl3 219  ARG219      0.1354
     97  NH2       20.0210   15.3810   85.8190 N.pl3 219  ARG219      0.1354
     98  N         24.8680   16.2580   76.5090 N.3   260  GLN260     -0.1245
     99  CA        24.0570   17.4420   76.3030 C.3   260  GLN260      0.1566
    100  C         24.6960   18.8270   76.2160 C.2   260  GLN260      0.2260
    101  O         24.0080   19.7970   75.9070 O.2   260  GLN260     -0.2867
    102  CB        22.9570   17.4240   77.3550 C.3   260  GLN260      0.0367
    103  CG        21.8250   16.4610   76.9580 C.3   260  GLN260      0.0905
    104  CD        20.9310   17.0850   75.9120 C.2   260  GLN260      0.2608
    105  OE1       20.2040   18.0220   76.2110 O.2   260  GLN260     -0.2717
    106  NE2       20.9930   16.5790   74.6720 N.am  260  GLN260     -0.0878
    107  N         30.3040   18.6950   78.6230 N.3   264  GLN264     -0.1245
    108  CA        30.2050   17.2740   78.9900 C.3   264  GLN264      0.1566
    109  C         31.0670   16.4740   77.9910 C.2   264  GLN264      0.2260
    110  O         31.6700   15.4320   78.3280 O.2   264  GLN264     -0.2867
    111  CB        28.7480   16.7900   78.9620 C.3   264  GLN264      0.0367
    112  CG        27.8940   17.3110   80.1450 C.3   264  GLN264      0.0905
    113  CD        26.4510   16.8130   80.0980 C.2   264  GLN264      0.2608
    114  OE1       25.9550   16.4480   79.0340 O.2   264  GLN264     -0.2717
    115  NE2       25.7670   16.8140   81.2550 N.am  264  GLN264     -0.0878
@<TRIPOS>BOND
     1    23    21    1
     2    22    21    1
     3    21    20    2
     4    20    19    1
     5    19    18    1
     6    27    26    2
     7    16    15    2
     8    28    25    1
     9    28    29    1
    10    25    26    1
    11    25    24    1
    12    26    32   am
    13    15    24   am
    14    15    14    1
    15    18    17    1
    16    32    33    1
    17    31    29   ar
    18    29    30   ar
    19    34    33    1
    20    34    35    2
    21    33    36    1
    22    17    14    1
    23   106   104   am
    24    14    13    1
    25    36    38    1
    26    36    37    1
    27   101   100    2
    28   104   105    2
    29   104   103    1
    30    82    80    1
    31    81    79    1
    32   100    99    1
    33     4     3    2
    34    99    98    1
    35    99   102    1
    36    13     3   am
    37    79    80    1
    38    79    76    1
    39     3     2    1
    40   103   102    1
    41    78    77    2
    42    76    77    1
    43    76    75    1
    44   109   110    2
    45   109   108    1
    46    77    83   am
    47     5     2    1
    48     5     6    1
    49     2     1    1
    50   107   108    1
    51    83    84    1
    52   111   108    1
    53   111   112    1
    54   114   113    2
    55    55    57   ar
    56    55    53   ar
    57    73    72    2
    58    84    85    1
    59    86    85    2
    60     6     8   ar
    61     6     7   ar
    62    57    56   ar
    63    74    71    1
    64    53    52   ar
    65    85    87   am
    66   113   112    1
    67   113   115   am
    68    72    71    1
    69     8    10   ar
    70     7     9   ar
    71    71    70    1
    72    56    54   ar
    73    52    54   ar
    74    52    51    1
    75    87    88    1
    76    10    11   ar
    77     9    11   ar
    78    51    48    1
    79    89    90    2
    80    89    88    1
    81    70    66   am
    82    50    49    2
    83    11    12    1
    84    48    49    1
    85    48    47    1
    86    88    91    1
    87    63    62    1
    88    67    66    2
    89    66    65    1
    90    47    41   am
    91    91    92    1
    92    45    44   ar
    93    92    93    1
    94    62    59    1
    95    58    59    1
    96    65    64    1
    97    65    68    1
    98    46    44   ar
    99    64    60   am
   100    41    42    2
   101    41    40    1
   102    44    43    1
   103    68    69    1
   104    60    59    1
   105    60    61    2
   106    94    93    1
   107    94    95    2
   108    40    43    1
   109    40    39    1
   110    97    95    1
   111    95    96    1
