@<TRIPOS>MOLECULE
tmp/2cniA00.pdb
 175 166 0 0 0
SMALL
GASTEIGER

@<TRIPOS>ATOM
      1  N         30.7790   20.0990   69.6520 N.3    20  TYR20      -0.1241
      2  CA        29.5390   19.5500   70.1990 C.3    20  TYR20       0.1605
      3  C         28.3560   19.6520   69.2500 C.2    20  TYR20       0.2264
      4  O         27.6160   18.6780   69.0700 O.2    20  TYR20      -0.2867
      5  CB        29.1750   20.2390   71.5210 C.3    20  TYR20       0.0534
      6  CG        27.8910   19.7250   72.1320 C.ar   20  TYR20      -0.0201
      7  CD1       27.7580   18.3900   72.5230 C.ar   20  TYR20      -0.0009
      8  CD2       26.8020   20.5610   72.2920 C.ar   20  TYR20      -0.0009
      9  CE1       26.5620   17.9080   73.0500 C.ar   20  TYR20       0.0417
     10  CE2       25.6140   20.0940   72.8160 C.ar   20  TYR20       0.0417
     11  CZ        25.5000   18.7710   73.1910 C.ar   20  TYR20       0.1957
     12  OH        24.3180   18.3330   73.7140 O.3    20  TYR20      -0.2866
     13  N         25.9430   16.9320   67.2880 N.3    24  ARG24      -0.1245
     14  CA        24.4820   17.0120   67.2510 C.3    24  ARG24       0.1563
     15  C         23.9240   16.9990   65.8230 C.2    24  ARG24       0.2260
     16  O         22.9210   16.3390   65.5490 O.2    24  ARG24      -0.2867
     17  CB        23.9880   18.2610   67.9900 C.3    24  ARG24       0.0307
     18  CG        24.1640   18.1860   69.5010 C.3    24  ARG24       0.0489
     19  CD        23.3340   19.2490   70.1790 C.3    24  ARG24       0.2205
     20  NE        21.9220   19.0130   69.9320 N.pl3  24  ARG24      -0.0865
     21  CZ        21.0660   19.9270   69.4850 C.cat  24  ARG24       0.5346
     22  NH1       21.4730   21.1600   69.2330 N.pl3  24  ARG24       0.1354
     23  NH2       19.7990   19.6000   69.2820 N.pl3  24  ARG24       0.1354
     24  N         24.1500   13.4660   64.4150 N.3    27  ALA27      -0.1245
     25  CA        23.4820   12.4030   65.1570 C.3    27  ALA27       0.1562
     26  C         22.3540   11.7180   64.3980 C.2    27  ALA27       0.2260
     27  O         21.6290   12.3460   63.6110 O.2    27  ALA27      -0.2867
     28  CB        22.9500   12.9500   66.4880 C.3    27  ALA27       0.0290
     29  N          9.3730   13.8590   79.8150 N.3    46  TYR46      -0.1227
     30  CA         9.6090   15.0060   78.9330 C.3    46  TYR46       0.1736
     31  C          9.1610   14.6560   77.5080 C.2    46  TYR46       0.2595
     32  O          9.5630   13.6350   76.9410 O.2    46  TYR46      -0.2718
     33  CB        11.1000   15.3760   78.9320 C.3    46  TYR46       0.0548
     34  CG        11.6520   15.6760   80.3060 C.ar   46  TYR46      -0.0200
     35  CD1       11.2290   16.8000   81.0100 C.ar   46  TYR46      -0.0009
     36  CD2       12.5640   14.8140   80.9220 C.ar   46  TYR46      -0.0009
     37  CE1       11.6920   17.0630   82.2850 C.ar   46  TYR46       0.0417
     38  CE2       13.0360   15.0690   82.2100 C.ar   46  TYR46       0.0417
     39  CZ        12.5950   16.1960   82.8880 C.ar   46  TYR46       0.1957
     40  OH        13.0260   16.4710   84.1700 O.3    46  TYR46      -0.2866
     41  N          8.3360   15.5150   76.9300 N.am   47  ARG47      -0.1966
     42  CA         7.8160   15.2910   75.5870 C.3    47  ARG47       0.1729
     43  C          8.8830   15.2450   74.4880 C.2    47  ARG47       0.2616
     44  O          8.6540   14.6970   73.4160 O.2    47  ARG47      -0.2715
     45  CB         6.7910   16.3760   75.2400 C.3    47  ARG47       0.0348
     46  CG         7.3810   17.7600   75.0300 C.3    47  ARG47       0.0492
     47  CD         6.3450   18.7200   74.4080 C.3    47  ARG47       0.2205
     48  NE         6.8630   20.0870   74.2750 N.pl3  47  ARG47      -0.0865
     49  CZ         6.9690   20.9410   75.2880 C.cat  47  ARG47       0.5346
     50  NH1        6.5830   20.5710   76.5070 N.pl3  47  ARG47       0.1354
     51  NH2        7.4790   22.1540   75.0880 N.pl3  47  ARG47       0.1354
     52  N         10.0470   15.8130   74.7580 N.am   48  ASP48      -0.1957
     53  CA        11.1040   15.8580   73.7610 C.3    48  ASP48       0.1840
     54  C         12.2590   14.8800   74.0320 C.2    48  ASP48       0.2621
     55  O         13.3310   14.9850   73.4390 O.2    48  ASP48      -0.2715
     56  CB        11.6160   17.2980   73.6500 C.3    48  ASP48       0.1450
     57  CG        12.2670   17.7840   74.9290 C.2    48  ASP48       0.3671
     58  OD1       11.8730   17.3000   76.0200 O.co2  48  ASP48      -0.2456
     59  OD2       13.1710   18.6480   74.8430 O.co2  48  ASP48      -0.2456
     60  N         12.0330   13.9260   74.9260 N.am   49  VAL49      -0.1977
     61  CA        13.0410   12.9250   75.2290 C.3    49  VAL49       0.1596
     62  C         12.3200   11.5750   75.1840 C.2    49  VAL49       0.2287
     63  O         11.6780   11.1680   76.1540 O.2    49  VAL49      -0.2864
     64  CB        13.6520   13.1320   76.6220 C.3    49  VAL49       0.0276
     65  CG1       14.6710   12.0450   76.8910 C.3    49  VAL49       0.0022
     66  CG2       14.2950   14.5060   76.7250 C.3    49  VAL49       0.0022
     67  N         12.5520   15.8290   90.0510 N.3   120  LYS120     -0.1245
     68  CA        13.1980   15.3410   88.8370 C.3   120  LYS120      0.1561
     69  C         13.0610   13.8370   88.6290 C.2   120  LYS120      0.2260
     70  O         13.3920   13.3110   87.5490 O.2   120  LYS120     -0.2867
     71  CB        14.6920   15.6860   88.8950 C.3   120  LYS120      0.0271
     72  CG        14.9980   17.1690   88.9880 C.3   120  LYS120      0.0035
     73  CD        14.5350   17.8960   87.7170 C.3   120  LYS120      0.0206
     74  CE        15.1600   19.2640   87.6340 C.3   120  LYS120      0.1093
     75  NZ        16.6440   19.1500   87.6710 N.3   120  LYS120     -0.1314
     76  N         22.3640   19.2900   87.4920 N.3   181  ASP181     -0.1225
     77  CA        21.6380   19.0840   86.2440 C.3   181  ASP181      0.1805
     78  C         22.2510   19.9950   85.1650 C.2   181  ASP181      0.2597
     79  O         22.5160   21.1700   85.4180 O.2   181  ASP181     -0.2718
     80  CB        20.1650   19.4290   86.4580 C.3   181  ASP181      0.1424
     81  CG        19.2680   18.7810   85.4390 C.2   181  ASP181      0.3668
     82  OD1       19.7520   17.8940   84.6990 O.co2 181  ASP181     -0.2456
     83  OD2       18.0800   19.1510   85.3780 O.co2 181  ASP181     -0.2456
     84  N         22.4830   19.4410   83.9790 N.am  182  PHE182     -0.1976
     85  CA        23.0990   20.1720   82.8720 C.3   182  PHE182      0.1639
     86  C         24.5290   20.5950   83.2310 C.2   182  PHE182      0.2290
     87  O         25.0850   21.4780   82.5970 O.2   182  PHE182     -0.2864
     88  CB        22.2720   21.4120   82.5020 C.3   182  PHE182      0.0560
     89  CG        20.9640   21.0880   81.8330 C.ar  182  PHE182     -0.0200
     90  CD1       20.9170   20.7940   80.4650 C.ar  182  PHE182     -0.0042
     91  CD2       19.7910   21.0210   82.5760 C.ar  182  PHE182     -0.0042
     92  CE1       19.7190   20.4350   79.8570 C.ar  182  PHE182     -0.0003
     93  CE2       18.5970   20.6680   81.9850 C.ar  182  PHE182     -0.0003
     94  CZ        18.5590   20.3720   80.6110 C.ar  182  PHE182     -0.0000
     95  N         19.1330    9.4080   85.1040 N.3   215  CYS215     -0.1221
     96  CA        19.3070   10.6840   85.7450 C.3   215  CYS215      0.1808
     97  C         17.8650   11.1880   85.6680 C.2   215  CYS215      0.2602
     98  O         16.9540   10.4160   85.9560 O.2   215  CYS215     -0.2717
     99  CB        20.3060   11.5990   84.9920 C.3   215  CYS215      0.0970
    100  SG        20.2840   11.6140   83.1840 S.3   215  CYS215     -0.0800
    101  N         17.6170   12.4400   85.2950 N.am  216  SER216     -0.1938
    102  CA        16.2190   12.8610   85.2190 C.3   216  SER216      0.2055
    103  C         15.6170   12.5310   83.8640 C.2   216  SER216      0.2642
    104  O         14.5400   11.9540   83.7970 O.2   216  SER216     -0.2714
    105  CB        16.0550   14.3620   85.5100 C.3   216  SER216      0.2130
    106  OG        14.6740   14.7240   85.5020 O.3   216  SER216     -0.2179
    107  N         16.3030   12.9070   82.7840 N.am  217  ALA217     -0.1977
    108  CA        15.8390   12.6200   81.4340 C.3   217  ALA217      0.1597
    109  C         16.4840   11.3500   80.8740 C.2   217  ALA217      0.2287
    110  O         15.9800   10.7700   79.9180 O.2   217  ALA217     -0.2864
    111  CB        16.1440   13.7820   80.5060 C.3   217  ALA217      0.0319
    112  N         19.5700   11.2290   79.5550 N.3   219  ILE219     -0.1231
    113  CA        20.4360   11.5290   78.4130 C.3   219  ILE219      0.1692
    114  C         21.6550   12.4060   78.7010 C.2   219  ILE219      0.2593
    115  O         22.7080   12.2140   78.0750 O.2   219  ILE219     -0.2718
    116  CB        19.6440   12.1710   77.2450 C.3   219  ILE219      0.0266
    117  CG1       19.0090   13.4920   77.6960 C.3   219  ILE219      0.0019
    118  CG2       18.5450   11.2160   76.7720 C.3   219  ILE219      0.0020
    119  CD1       18.1150   14.1350   76.6380 C.3   219  ILE219      0.0001
    120  N         21.5340   13.3640   79.6280 N.am  220  GLY220     -0.1942
    121  CA        22.6710   14.2370   79.9280 C.3   220  GLY220      0.2014
    122  C         23.7290   13.5790   80.8100 C.2   220  GLY220      0.2638
    123  O         24.8040   13.1790   80.3500 O.2   220  GLY220     -0.2714
    124  N         23.4190   13.4500   82.0930 N.am  221  ARG221     -0.1977
    125  CA        24.3520   12.8370   83.0270 C.3   221  ARG221      0.1597
    126  C         24.5660   11.3570   82.7130 C.2   221  ARG221      0.2287
    127  O         25.6990   10.8840   82.7440 O.2   221  ARG221     -0.2864
    128  CB        23.8490   13.0760   84.4540 C.3   221  ARG221      0.0334
    129  CG        23.9330   14.5910   84.8130 C.3   221  ARG221      0.0492
    130  CD        23.1570   14.9900   86.0690 C.3   221  ARG221      0.2205
    131  NE        21.7110   15.1150   85.8570 N.pl3 221  ARG221     -0.0865
    132  CZ        20.8480   15.3890   86.8380 C.cat 221  ARG221      0.5346
    133  NH1       21.2950   15.5640   88.0740 N.pl3 221  ARG221      0.1354
    134  NH2       19.5450   15.4870   86.5990 N.pl3 221  ARG221      0.1354
    135  N         24.6550    7.4380   70.3560 N.3   254  ARG254     -0.1245
    136  CA        23.4480    8.1660   69.9720 C.3   254  ARG254      0.1563
    137  C         22.5480    7.4290   68.9720 C.2   254  ARG254      0.2260
    138  O         21.4270    7.8660   68.7130 O.2   254  ARG254     -0.2867
    139  CB        23.8040    9.5590   69.4480 C.3   254  ARG254      0.0307
    140  CG        24.0480   10.5700   70.5780 C.3   254  ARG254      0.0489
    141  CD        24.0180   11.9870   70.0460 C.3   254  ARG254      0.2205
    142  NE        24.0890   12.9750   71.1130 N.pl3 254  ARG254     -0.0865
    143  CZ        23.4440   14.1420   71.0830 C.cat 254  ARG254      0.5346
    144  NH1       22.6810   14.4500   70.0430 N.pl3 254  ARG254      0.1354
    145  NH2       23.5640   15.0030   72.0860 N.pl3 254  ARG254      0.1354
    146  N         18.5070    9.1500   71.7410 N.3   258  MET258     -0.1230
    147  CA        18.7260   10.5460   71.3610 C.3   258  MET258      0.1702
    148  C         19.2840   11.4200   72.4870 C.2   258  MET258      0.2592
    149  O         19.1150   11.1180   73.6730 O.2   258  MET258     -0.2718
    150  CB        17.3980   11.1710   70.9010 C.3   258  MET258      0.0401
    151  CG        16.3710   11.2210   72.0330 C.3   258  MET258      0.0596
    152  SD        14.8260   12.1110   71.7070 S.3   258  MET258     -0.1393
    153  CE        14.0660   11.0480   70.4400 C.3   258  MET258      0.0692
    154  N         19.9290   12.5160   72.0810 N.am  259  GLY259     -0.1957
    155  CA        20.4650   13.4990   73.0060 C.3   259  GLY259      0.1869
    156  C         21.5230   13.1650   74.0350 C.2   259  GLY259      0.2309
    157  O         21.6930   13.9290   74.9810 O.2   259  GLY259     -0.2863
    158  N         24.3680   16.5120   77.0060 N.3   262  GLN262     -0.1245
    159  CA        23.5030   17.6750   76.8430 C.3   262  GLN262      0.1566
    160  C         24.1220   19.0570   76.7350 C.2   262  GLN262      0.2260
    161  O         23.4170   20.0130   76.4450 O.2   262  GLN262     -0.2867
    162  CB        22.4530   17.6670   77.9650 C.3   262  GLN262      0.0367
    163  CG        21.2980   16.6600   77.7480 C.3   262  GLN262      0.0905
    164  CD        20.2900   17.1390   76.7120 C.2   262  GLN262      0.2608
    165  OE1       19.5580   18.1010   76.9470 O.2   262  GLN262     -0.2717
    166  NE2       20.2460   16.4690   75.5650 N.am  262  GLN262     -0.0878
    167  N         29.7860   19.0250   79.1220 N.3   266  GLN266     -0.1245
    168  CA        29.6870   17.6260   79.5340 C.3   266  GLN266      0.1566
    169  C         30.5800   16.7950   78.5670 C.2   266  GLN266      0.2260
    170  O         31.1530   15.7710   78.9600 O.2   266  GLN266     -0.2867
    171  CB        28.2220   17.1480   79.5030 C.3   266  GLN266      0.0367
    172  CG        27.3650   17.7040   80.6480 C.3   266  GLN266      0.0905
    173  CD        25.9400   17.1560   80.6490 C.2   266  GLN266      0.2608
    174  OE1       25.4440   16.6820   79.6240 O.2   266  GLN266     -0.2717
    175  NE2       25.2770   17.2270   81.8030 N.am  266  GLN266     -0.0878
@<TRIPOS>BOND
     1    27    26    2
     2    26    25    1
     3    24    25    1
     4    25    28    1
     5    16    15    2
     6    15    14    1
     7    14    13    1
     8    14    17    1
     9    17    18    1
    10   138   137    2
    11   137   136    1
    12     4     3    2
    13    22    21    1
    14     3     2    1
    15    23    21    1
    16   139   136    1
    17   139   140    1
    18    21    20    2
    19    18    19    1
    20     1     2    1
    21    20    19    1
    22   136   135    1
    23   144   143    1
    24   141   140    1
    25   141   142    1
    26     2     5    1
    27   153   152    1
    28   150   147    1
    29   150   151    1
    30   143   142    2
    31   143   145    1
    32   147   146    1
    33   147   148    1
    34     5     6    1
    35   152   151    1
    36   154   148   am
    37   154   155    1
    38     6     8   ar
    39     6     7   ar
    40     8    10   ar
    41   148   149    2
    42     7     9   ar
    43    10    11   ar
    44   155   156    1
    45     9    11   ar
    46    11    12    1
    47    44    43    2
    48    55    54    2
    49    56    53    1
    50    56    57    1
    51    53    54    1
    52    53    52    1
    53    54    60   am
    54   156   157    2
    55    48    47    1
    56    48    49    2
    57    47    46    1
    58    43    52   am
    59    43    42    1
    60    59    57   ar
    61    60    61    1
    62    57    58   ar
    63    46    45    1
    64    51    49    1
    65    62    61    1
    66    62    63    2
    67    61    64    1
    68    45    42    1
    69    49    50    1
    70   166   164   am
    71    42    41    1
    72   161   160    2
    73    64    66    1
    74    64    65    1
    75   119   117    1
    76   164   165    2
    77   164   163    1
    78   160   159    1
    79   118   116    1
    80   159   158    1
    81   159   162    1
    82    41    31   am
    83    32    31    2
    84   116   117    1
    85   116   113    1
    86    31    30    1
    87   163   162    1
    88   115   114    2
    89   113   114    1
    90   113   112    1
    91   169   170    2
    92   169   168    1
    93   114   120   am
    94    33    30    1
    95    33    34    1
    96    30    29    1
    97   167   168    1
    98   171   168    1
    99   171   172    1
   100   174   173    2
   101   120   121    1
   102    92    90   ar
   103    92    94   ar
   104   110   109    2
   105   121   122    1
   106    34    36   ar
   107    34    35   ar
   108   123   122    2
   109    90    89   ar
   110   111   108    1
   111    94    93   ar
   112   172   173    1
   113   173   175   am
   114   122   124   am
   115   109   108    1
   116    36    38   ar
   117    35    37   ar
   118   108   107    1
   119    89    88    1
   120    89    91   ar
   121    93    91   ar
   122   124   125    1
   123    38    39   ar
   124    37    39   ar
   125    88    85    1
   126    87    86    2
   127   126   127    2
   128   126   125    1
   129   107   103   am
   130    85    86    1
   131    85    84    1
   132    39    40    1
   133   125   128    1
   134   100    99    1
   135   104   103    2
   136   103   102    1
   137    84    78   am
   138   128   129    1
   139    82    81   ar
   140   129   130    1
   141    99    96    1
   142    95    96    1
   143    78    79    2
   144    78    77    1
   145   102   101    1
   146   102   105    1
   147   101    97   am
   148    83    81   ar
   149    81    80    1
   150   106   105    1
   151    97    96    1
   152    97    98    2
   153   131   130    1
   154   131   132    2
   155    77    80    1
   156    77    76    1
   157   134   132    1
   158   132   133    1
   159    70    69    2
   160    74    75    1
   161    74    73    1
   162    73    72    1
   163    69    68    1
   164    68    71    1
   165    68    67    1
   166    71    72    1
