@<TRIPOS>MOLECULE
tmp/2cnkA00.pdb
 118 114 0 0 0
SMALL
GASTEIGER

@<TRIPOS>ATOM
      1  N         31.3570   39.0390   24.8490 N.3    34  THR34      -0.1203
      2  CA        31.6150   38.2520   23.6490 C.3    34  THR34       0.1994
      3  C         30.8230   36.9520   23.6130 C.2    34  THR34       0.2619
      4  O         30.4020   36.4380   24.6500 O.2    34  THR34      -0.2717
      5  CB        33.1100   37.9020   23.5340 C.3    34  THR34       0.1784
      6  OG1       33.5120   37.1530   24.6880 O.3    34  THR34      -0.2211
      7  CG2       33.9470   39.1650   23.4430 C.3    34  THR34       0.0376
      8  N         30.6240   36.4260   22.4090 N.am   35  SER35      -0.1937
      9  CA        29.9010   35.1740   22.2400 C.3    35  SER35       0.2055
     10  C         30.7670   34.0510   22.8020 C.2    35  SER35       0.2643
     11  O         31.9960   34.1160   22.7440 O.2    35  SER35      -0.2714
     12  CB        29.5990   34.9310   20.7580 C.3    35  SER35       0.2130
     13  OG        30.7840   34.9510   19.9810 O.3    35  SER35      -0.2179
     14  N         30.1270   33.0260   23.3510 N.am   36  ARG36      -0.1963
     15  CA        30.8560   31.9120   23.9420 C.3    36  ARG36       0.1729
     16  C         30.9230   30.7080   23.0070 C.2    36  ARG36       0.2616
     17  O         30.2140   29.7170   23.1830 O.2    36  ARG36      -0.2715
     18  CB        30.2100   31.5400   25.2820 C.3    36  ARG36       0.0348
     19  CG        30.2110   32.7050   26.2770 C.3    36  ARG36       0.0492
     20  CD        29.5300   32.3700   27.6050 C.3    36  ARG36       0.2205
     21  NE        30.1200   31.1940   28.2390 N.pl3  36  ARG36      -0.0865
     22  CZ        29.6050   29.9710   28.1720 C.cat  36  ARG36       0.5346
     23  NH1       28.4760   29.7570   27.5060 N.pl3  36  ARG36       0.1354
     24  NH2       30.2340   28.9540   28.7480 N.pl3  36  ARG36       0.1354
     25  N         31.7910   30.8050   22.0050 N.am   37  SER37      -0.1950
     26  CA        31.9550   29.7340   21.0350 C.3    37  SER37       0.1924
     27  C         32.2560   28.4130   21.7270 C.2    37  SER37       0.2314
     28  O         33.0290   28.3620   22.6870 O.2    37  SER37      -0.2863
     29  CB        33.0820   30.0780   20.0560 C.3    37  SER37       0.2116
     30  OG        34.2670   30.4080   20.7560 O.3    37  SER37      -0.2180
     31  N         27.7330   30.1640   31.0460 N.3    92  SER92      -0.1202
     32  CA        27.7340   31.5740   30.6740 C.3    92  SER92       0.2020
     33  C         28.9700   32.2960   31.1890 C.2    92  SER92       0.2619
     34  O         29.8730   31.6830   31.7560 O.2    92  SER92      -0.2717
     35  CB        26.4900   32.2500   31.2590 C.3    92  SER92       0.2103
     36  OG        26.3110   33.5520   30.7340 O.3    92  SER92      -0.2182
     37  N         29.0120   33.6050   30.9670 N.am   93  HIS93      -0.1961
     38  CA        30.1100   34.4100   31.4770 C.3    93  HIS93       0.1787
     39  C         29.7500   34.5670   32.9480 C.2    93  HIS93       0.2621
     40  O         28.5940   34.3770   33.3300 O.2    93  HIS93      -0.2715
     41  CB        30.1380   35.7930   30.8140 C.3    93  HIS93       0.0785
     42  CG        30.6390   35.7850   29.4030 C.ar   93  HIS93       0.0821
     43  ND1       31.9090   35.3700   29.0670 N.ar   93  HIS93      -0.2267
     44  CD2       30.0460   36.1570   28.2440 C.ar   93  HIS93       0.1154
     45  CE1       32.0770   35.4860   27.7610 C.ar   93  HIS93       0.1986
     46  NE2       30.9600   35.9610   27.2390 N.ar   93  HIS93      -0.2212
     47  N         30.7240   34.9050   33.7790 N.am   94  GLY94      -0.1940
     48  CA        30.4220   35.0820   35.1820 C.3    94  GLY94       0.2014
     49  C         31.5920   35.6190   35.9690 C.2    94  GLY94       0.2639
     50  O         32.6760   35.8180   35.4310 O.2    94  GLY94      -0.2714
     51  N         31.3450   35.8790   37.2460 N.am   95  GLU95      -0.1963
     52  CA        32.3650   36.3630   38.1620 C.3    95  GLU95       0.1733
     53  C         32.0220   35.6840   39.4710 C.2    95  GLU95       0.2616
     54  O         31.0350   34.9550   39.5440 O.2    95  GLU95      -0.2715
     55  CB        32.2870   37.8790   38.3310 C.3    95  GLU95       0.0429
     56  CG        32.2400   38.6490   37.0320 C.3    95  GLU95       0.1163
     57  CD        32.5600   40.1090   37.2340 C.2    95  GLU95       0.3649
     58  OE1       32.2120   40.6440   38.3080 O.co2  95  GLU95      -0.2457
     59  OE2       33.1510   40.7230   36.3210 O.co2  95  GLU95      -0.2457
     60  N         32.8130   35.9170   40.5090 N.am   96  GLU96      -0.1977
     61  CA        32.5300   35.2740   41.7830 C.3    96  GLU96       0.1602
     62  C         31.0990   35.5550   42.2480 C.2    96  GLU96       0.2287
     63  O         30.7110   36.7100   42.4340 O.2    96  GLU96      -0.2864
     64  CB        33.5230   35.7370   42.8500 C.3    96  GLU96       0.0415
     65  CG        33.4520   34.9180   44.1260 C.3    96  GLU96       0.1163
     66  CD        33.8800   33.4770   43.9150 C.2    96  GLU96       0.3649
     67  OE1       35.0920   33.2340   43.7210 O.co2  96  GLU96      -0.2457
     68  OE2       33.0050   32.5880   43.9380 O.co2  96  GLU96      -0.2457
     69  N         25.9830   35.4800   34.2460 N.3   100  PHE100     -0.1241
     70  CA        25.3990   36.4800   33.3660 C.3   100  PHE100      0.1605
     71  C         24.2690   36.0640   32.4520 C.2   100  PHE100      0.2264
     72  O         24.3550   35.0630   31.7420 O.2   100  PHE100     -0.2867
     73  CB        26.4750   37.1360   32.5010 C.3   100  PHE100      0.0534
     74  CG        27.3210   38.1250   33.2360 C.ar  100  PHE100     -0.0203
     75  CD1       28.4710   37.7190   33.9030 C.ar  100  PHE100     -0.0042
     76  CD2       26.9580   39.4680   33.2770 C.ar  100  PHE100     -0.0042
     77  CE1       29.2530   38.6380   34.6010 C.ar  100  PHE100     -0.0003
     78  CE2       27.7320   40.3950   33.9730 C.ar  100  PHE100     -0.0003
     79  CZ        28.8810   39.9780   34.6360 C.ar  100  PHE100     -0.0000
     80  N         29.6610   26.5280   34.8540 N.3   133  GLN133     -0.1231
     81  CA        30.7790   26.7900   33.9550 C.3   133  GLN133      0.1698
     82  C         30.7660   28.2990   33.7450 C.2   133  GLN133      0.2592
     83  O         29.9430   28.8240   32.9920 O.2   133  GLN133     -0.2718
     84  CB        30.5840   26.0600   32.6210 C.3   133  GLN133      0.0381
     85  CG        31.5350   26.4870   31.5000 C.3   133  GLN133      0.0905
     86  CD        32.9970   26.4540   31.9120 C.2   133  GLN133      0.2608
     87  OE1       33.4430   25.5270   32.5840 O.2   133  GLN133     -0.2717
     88  NE2       33.7520   27.4630   31.4960 N.am  133  GLN133     -0.0878
     89  N         31.6700   28.9840   34.4370 N.am  134  ALA134     -0.1966
     90  CA        31.7880   30.4380   34.3660 C.3   134  ALA134      0.1728
     91  C         33.0000   30.8860   35.1700 C.2   134  ALA134      0.2616
     92  O         33.4800   30.1570   36.0370 O.2   134  ALA134     -0.2715
     93  CB        30.5310   31.0920   34.9290 C.3   134  ALA134      0.0334
     94  N         33.4920   32.0880   34.8870 N.am  135  CYS135     -0.1968
     95  CA        34.6400   32.6240   35.6120 C.3   135  CYS135      0.1712
     96  C         34.2340   32.9480   37.0390 C.2   135  CYS135      0.2296
     97  O         33.0540   33.1460   37.3310 O.2   135  CYS135     -0.2864
     98  CB        35.1680   33.9000   34.9460 C.3   135  CYS135      0.0983
     99  SG        36.0740   33.6220   33.4120 S.3   135  CYS135     -0.0798
    100  N         36.5820   35.0150   38.7530 N.3   137  GLY137     -0.1210
    101  CA        37.5680   36.0440   39.0190 C.3   137  GLY137      0.1956
    102  C         38.5210   36.2210   37.8500 C.2   137  GLY137      0.2612
    103  O         38.2760   35.7040   36.7590 O.2   137  GLY137     -0.2717
    104  N         39.6110   36.9490   38.0800 N.am  138  THR138     -0.1952
    105  CA        40.6010   37.2060   37.0390 C.3   138  THR138      0.1897
    106  C         41.9760   36.6230   37.3270 C.2   138  THR138      0.2313
    107  O         42.9620   37.0250   36.7120 O.2   138  THR138     -0.2863
    108  CB        40.7970   38.7120   36.8110 C.3   138  THR138      0.1794
    109  OG1       41.0820   39.3520   38.0590 O.3   138  THR138     -0.2208
    110  CG2       39.5690   39.3170   36.2050 C.3   138  THR138      0.0378
    111  N         44.9790   33.8500   37.2750 N.3   140  LEU140     -0.1245
    112  CA        45.4460   32.8390   36.3360 C.3   140  LEU140      0.1561
    113  C         46.3880   31.8960   37.0680 C.2   140  LEU140      0.2260
    114  O         47.2070   32.3270   37.8780 O.2   140  LEU140     -0.2867
    115  CB        46.1670   33.5040   35.1570 C.3   140  LEU140      0.0270
    116  CG        45.2790   34.2960   34.1870 C.3   140  LEU140      0.0019
    117  CD1       46.1330   35.2190   33.3320 C.3   140  LEU140      0.0001
    118  CD2       44.4840   33.3370   33.3140 C.3   140  LEU140      0.0001
@<TRIPOS>BOND
     1    13    12    1
     2    29    30    1
     3    29    26    1
     4    12     9    1
     5    26    27    1
     6    26    25    1
     7    27    28    2
     8    25    16   am
     9     9     8    1
    10     9    10    1
    11     8     3   am
    12    11    10    2
    13    10    14   am
    14    16    17    2
    15    16    15    1
    16    14    15    1
    17     7     5    1
    18     5     2    1
    19     5     6    1
    20     3     2    1
    21     3     4    2
    22     2     1    1
    23    15    18    1
    24    18    19    1
    25    19    20    1
    26    46    45   ar
    27    46    44   ar
    28    23    22    1
    29    20    21    1
    30    45    43   ar
    31    22    21    2
    32    22    24    1
    33    44    42   ar
    34    43    42   ar
    35    42    41    1
    36    32    31    1
    37    32    33    1
    38    32    35    1
    39    36    35    1
    40    41    38    1
    41    37    33   am
    42    37    38    1
    43    33    34    2
    44    38    39    1
    45    88    86   am
    46    85    86    1
    47    85    84    1
    48    72    71    2
    49    86    87    2
    50    71    70    1
    51    73    74    1
    52    73    70    1
    53    84    81    1
    54    39    40    2
    55    39    47   am
    56    83    82    2
    57    74    76   ar
    58    74    75   ar
    59    76    78   ar
    60   118   116    1
    61   117   116    1
    62    70    69    1
    63    99    98    1
    64    82    81    1
    65    82    89   am
    66    47    48    1
    67    75    77   ar
    68    81    80    1
    69    78    79   ar
    70   116   115    1
    71    90    89    1
    72    90    93    1
    73    90    91    1
    74    77    79   ar
    75    94    91   am
    76    94    95    1
    77    98    95    1
    78   115   112    1
    79    91    92    2
    80    48    49    1
    81    50    49    2
    82    95    96    1
    83    49    51   am
    84   110   108    1
    85    59    57   ar
    86   112   113    1
    87   112   111    1
    88   107   106    2
    89   103   102    2
    90   108   105    1
    91   108   109    1
    92    56    57    1
    93    56    55    1
    94   105   106    1
    95   105   104    1
    96    96    97    2
    97   113   114    2
    98    57    58   ar
    99    51    52    1
   100   102   104   am
   101   102   101    1
   102    52    55    1
   103    52    53    1
   104   100   101    1
   105    53    54    2
   106    53    60   am
   107    60    61    1
   108    61    62    1
   109    61    64    1
   110    62    63    2
   111    64    65    1
   112    67    66   ar
   113    66    68   ar
   114    66    65    1
