@<TRIPOS>MOLECULE
tmp/2cnlB00.pdb
 140 144 0 0 0
SMALL
GASTEIGER

@<TRIPOS>ATOM
      1  N         40.1420   32.5290   36.3030 N.3    30  TYR30      -0.1227
      2  CA        39.4610   32.4800   35.0130 C.3    30  TYR30       0.1736
      3  C         39.1350   31.0090   34.7980 C.2    30  TYR30       0.2596
      4  O         39.7380   30.1410   35.4330 O.2    30  TYR30      -0.2718
      5  CB        40.3900   32.8770   33.8600 C.3    30  TYR30       0.0548
      6  CG        40.7260   34.3430   33.6990 C.ar   30  TYR30      -0.0200
      7  CD1       42.0060   34.8110   33.9860 C.ar   30  TYR30      -0.0009
      8  CD2       39.7960   35.2420   33.1720 C.ar   30  TYR30      -0.0009
      9  CE1       42.3620   36.1360   33.7410 C.ar   30  TYR30       0.0417
     10  CE2       40.1420   36.5730   32.9260 C.ar   30  TYR30       0.0417
     11  CZ        41.4290   37.0080   33.2120 C.ar   30  TYR30       0.1957
     12  OH        41.7950   38.3130   32.9590 O.3    30  TYR30      -0.2866
     13  N         38.2010   30.7350   33.8950 N.am   31  SER31      -0.1938
     14  CA        37.8390   29.3660   33.5470 C.3    31  SER31       0.2055
     15  C         38.1070   29.2590   32.0470 C.2    31  SER31       0.2643
     16  O         37.7280   30.1500   31.2870 O.2    31  SER31      -0.2714
     17  CB        36.3660   29.0900   33.8310 C.3    31  SER31       0.2130
     18  OG        36.0580   27.7330   33.5410 O.3    31  SER31      -0.2179
     19  N         38.7470   28.1710   31.6270 N.am   32  TRP32      -0.1959
     20  CA        39.1010   27.9810   30.2200 C.3    32  TRP32       0.1771
     21  C         38.1270   27.1860   29.3530 C.2    32  TRP32       0.2620
     22  O         37.5650   26.1760   29.7760 O.2    32  TRP32      -0.2715
     23  CB        40.4840   27.3380   30.1190 C.3    32  TRP32       0.0590
     24  CG        41.5910   28.2450   30.5420 C.ar   32  TRP32       0.0006
     25  CD1       42.1900   28.3020   31.7680 C.ar   32  TRP32       0.0946
     26  CD2       42.2150   29.2520   29.7410 C.ar   32  TRP32       0.0152
     27  NE1       43.1530   29.2880   31.7780 N.ar   32  TRP32      -0.2442
     28  CE2       43.1880   29.8850   30.5460 C.ar   32  TRP32       0.0810
     29  CE3       42.0440   29.6840   28.4190 C.ar   32  TRP32       0.0012
     30  CZ2       43.9910   30.9290   30.0700 C.ar   32  TRP32       0.0191
     31  CZ3       42.8420   30.7220   27.9470 C.ar   32  TRP32       0.0001
     32  CH2       43.8010   31.3310   28.7720 C.ar   32  TRP32       0.0015
     33  N         37.9620   27.6500   28.1180 N.am   33  ARG33      -0.1963
     34  CA        37.0700   27.0200   27.1540 C.3    33  ARG33       0.1729
     35  C         37.7260   26.9620   25.7780 C.2    33  ARG33       0.2616
     36  O         38.2890   27.9510   25.3140 O.2    33  ARG33      -0.2715
     37  CB        35.7610   27.8150   27.0790 C.3    33  ARG33       0.0348
     38  CG        34.8970   27.5540   25.8490 C.3    33  ARG33       0.0492
     39  CD        33.5610   28.2850   25.9720 C.3    33  ARG33       0.2205
     40  NE        33.7390   29.6750   26.3900 N.pl3  33  ARG33      -0.0865
     41  CZ        34.1420   30.6620   25.5940 C.cat  33  ARG33       0.5346
     42  NH1       34.4070   30.4290   24.3150 N.pl3  33  ARG33       0.1354
     43  NH2       34.3030   31.8850   26.0900 N.pl3  33  ARG33       0.1354
     44  N         37.6630   25.8000   25.1340 N.am   34  ASN34      -0.1958
     45  CA        38.2320   25.6520   23.7990 C.3    34  ASN34       0.1819
     46  C         37.1200   26.0290   22.8210 C.2    34  ASN34       0.2622
     47  O         36.0360   25.4420   22.8410 O.2    34  ASN34      -0.2715
     48  CB        38.7000   24.2100   23.5720 C.3    34  ASN34       0.1195
     49  CG        39.3700   24.0170   22.2200 C.2    34  ASN34       0.2630
     50  OD1       38.7180   24.0610   21.1790 O.2    34  ASN34      -0.2716
     51  ND2       40.6830   23.8100   22.2340 N.am   34  ASN34      -0.0877
     52  N         37.3880   27.0220   21.9810 N.am   35  SER35      -0.1936
     53  CA        36.4000   27.5050   21.0240 C.3    35  SER35       0.2055
     54  C         35.8230   26.4370   20.1000 C.2    35  SER35       0.2642
     55  O         34.7680   26.6410   19.4990 O.2    35  SER35      -0.2714
     56  CB        36.9960   28.6450   20.1920 C.3    35  SER35       0.2130
     57  OG        38.1880   28.2370   19.5470 O.3    35  SER35      -0.2179
     58  N         36.5010   25.3000   19.9900 N.am   36  LYS36      -0.1977
     59  CA        36.0270   24.2240   19.1260 C.3    36  LYS36       0.1596
     60  C         35.5230   22.9900   19.8620 C.2    36  LYS36       0.2287
     61  O         34.5080   22.4060   19.4750 O.2    36  LYS36      -0.2864
     62  CB        37.1270   23.7810   18.1560 C.3    36  LYS36       0.0298
     63  CG        37.3380   24.6800   16.9500 C.3    36  LYS36       0.0038
     64  CD        38.4920   25.6430   17.1530 C.3    36  LYS36       0.0206
     65  CE        39.0280   26.1340   15.8150 C.3    36  LYS36       0.1093
     66  NZ        39.5520   25.0110   14.9810 N.3    36  LYS36      -0.1314
     67  N         34.3430   23.6550   26.8500 N.3    39  SER39      -0.1202
     68  CA        35.1260   23.9540   28.0490 C.3    39  SER39       0.2020
     69  C         35.8490   22.7250   28.5820 C.2    39  SER39       0.2618
     70  O         35.3540   21.6040   28.4680 O.2    39  SER39      -0.2717
     71  CB        34.2230   24.5340   29.1470 C.3    39  SER39       0.2103
     72  OG        33.2910   23.5720   29.6190 O.3    39  SER39      -0.2182
     73  N         37.0220   22.9390   29.1730 N.am   40  TRP40      -0.1975
     74  CA        37.7990   21.8290   29.7230 C.3    40  TRP40       0.1640
     75  C         36.9800   21.0940   30.7720 C.2    40  TRP40       0.2290
     76  O         36.9410   19.8630   30.8040 O.2    40  TRP40      -0.2864
     77  CB        39.0790   22.3370   30.3900 C.3    40  TRP40       0.0576
     78  CG        39.9990   23.0970   29.4880 C.ar   40  TRP40       0.0006
     79  CD1       39.9220   23.2070   28.1250 C.ar   40  TRP40       0.0946
     80  CD2       41.1720   23.8150   29.8830 C.ar   40  TRP40       0.0152
     81  NE1       40.9820   23.9480   27.6490 N.ar   40  TRP40      -0.2442
     82  CE2       41.7630   24.3330   28.7080 C.ar   40  TRP40       0.0810
     83  CE3       41.7830   24.0680   31.1180 C.ar   40  TRP40       0.0012
     84  CZ2       42.9420   25.0880   28.7330 C.ar   40  TRP40       0.0191
     85  CZ3       42.9530   24.8170   31.1450 C.ar   40  TRP40       0.0001
     86  CH2       43.5210   25.3200   29.9580 C.ar   40  TRP40       0.0015
     87  N         46.1610   22.5920   29.2100 N.3    74  GLU74      -0.1231
     88  CA        47.0330   23.7430   29.3830 C.3    74  GLU74       0.1699
     89  C         46.6920   24.6860   28.2410 C.2    74  GLU74       0.2593
     90  O         46.6060   24.2670   27.0910 O.2    74  GLU74      -0.2718
     91  CB        48.5070   23.3390   29.3250 C.3    74  GLU74       0.0402
     92  CG        49.4410   24.5160   29.5170 C.3    74  GLU74       0.1161
     93  CD        50.8970   24.1120   29.5750 C.2    74  GLU74       0.3649
     94  OE1       51.7210   24.8310   28.9770 O.co2  74  GLU74      -0.2457
     95  OE2       51.2180   23.0900   30.2250 O.co2  74  GLU74      -0.2457
     96  N         46.4920   25.9600   28.5520 N.am   75  SER75      -0.1938
     97  CA        46.1130   26.9220   27.5260 C.3    75  SER75       0.2055
     98  C         47.1920   27.2380   26.4970 C.2    75  SER75       0.2643
     99  O         48.3860   27.0770   26.7450 O.2    75  SER75      -0.2714
    100  CB        45.6630   28.2300   28.1760 C.3    75  SER75       0.2130
    101  OG        46.7780   28.9510   28.6670 O.3    75  SER75      -0.2179
    102  N         46.7340   27.6880   25.3350 N.am   76  PHE76      -0.1959
    103  CA        47.5980   28.0930   24.2360 C.3    76  PHE76       0.1771
    104  C         47.0790   29.4570   23.8130 C.2    76  PHE76       0.2620
    105  O         45.8880   29.6140   23.5240 O.2    76  PHE76      -0.2715
    106  CB        47.4810   27.1370   23.0500 C.3    76  PHE76       0.0574
    107  CG        48.3400   27.5310   21.8780 C.ar   76  PHE76      -0.0200
    108  CD1       49.6940   27.2160   21.8540 C.ar   76  PHE76      -0.0042
    109  CD2       47.8020   28.2550   20.8180 C.ar   76  PHE76      -0.0042
    110  CE1       50.5040   27.6200   20.7910 C.ar   76  PHE76      -0.0003
    111  CE2       48.6050   28.6640   19.7500 C.ar   76  PHE76      -0.0003
    112  CZ        49.9550   28.3470   19.7370 C.ar   76  PHE76      -0.0000
    113  N         47.9600   30.4470   23.7890 N.am   77  SER77      -0.1936
    114  CA        47.5530   31.7850   23.3960 C.3    77  SER77       0.2055
    115  C         48.7050   32.5430   22.7710 C.2    77  SER77       0.2643
    116  O         49.8560   32.3870   23.1740 O.2    77  SER77      -0.2714
    117  CB        47.0470   32.5630   24.6130 C.3    77  SER77       0.2130
    118  OG        46.6730   33.8780   24.2460 O.3    77  SER77      -0.2179
    119  N         48.3900   33.3580   21.7730 N.am   78  PHE78      -0.1973
    120  CA        49.4030   34.1680   21.1130 C.3    78  PHE78       0.1639
    121  C         49.7980   35.2830   22.0790 C.2    78  PHE78       0.2290
    122  O         50.8550   35.9000   21.9420 O.2    78  PHE78      -0.2864
    123  CB        48.8400   34.7420   19.8100 C.3    78  PHE78       0.0560
    124  CG        48.6290   33.7080   18.7360 C.ar   78  PHE78      -0.0200
    125  CD1       47.5880   33.8390   17.8210 C.ar   78  PHE78      -0.0042
    126  CD2       49.4780   32.6100   18.6320 C.ar   78  PHE78      -0.0042
    127  CE1       47.3930   32.8900   16.8190 C.ar   78  PHE78      -0.0003
    128  CE2       49.2930   31.6560   17.6340 C.ar   78  PHE78      -0.0003
    129  CZ        48.2470   31.7970   16.7250 C.ar   78  PHE78      -0.0000
    130  N         48.1880   35.0950   28.6290 N.3    82  PHE82      -0.1241
    131  CA        47.2320   33.9990   28.7590 C.3    82  PHE82       0.1605
    132  C         47.7370   32.6470   28.2790 C.2    82  PHE82       0.2264
    133  O         46.9770   31.6790   28.2230 O.2    82  PHE82      -0.2867
    134  CB        45.9530   34.3400   27.9980 C.3    82  PHE82       0.0534
    135  CG        45.1860   35.4850   28.5900 C.ar   82  PHE82      -0.0203
    136  CD1       45.6120   36.7960   28.4070 C.ar   82  PHE82      -0.0042
    137  CD2       44.0540   35.2480   29.3590 C.ar   82  PHE82      -0.0042
    138  CE1       44.9180   37.8580   28.9840 C.ar   82  PHE82      -0.0003
    139  CE2       43.3530   36.3040   29.9410 C.ar   82  PHE82      -0.0003
    140  CZ        43.7900   37.6100   29.7520 C.ar   82  PHE82      -0.0000
@<TRIPOS>BOND
     1    66    65    1
     2    65    64    1
     3   129   127   ar
     4   129   128   ar
     5   127   125   ar
     6    63    64    1
     7    63    62    1
     8   128   126   ar
     9   125   124   ar
    10    62    59    1
    11   126   124   ar
    12   124   123    1
    13    59    60    1
    14    59    58    1
    15    61    60    2
    16    55    54    2
    17    57    56    1
    18   112   111   ar
    19   112   110   ar
    20   111   109   ar
    21   123   120    1
    22    58    54   am
    23    54    53    1
    24    56    53    1
    25   110   108   ar
    26   109   107   ar
    27    53    52    1
    28   120   119    1
    29   120   121    1
    30    50    49    2
    31   119   115   am
    32   108   107   ar
    33   107   106    1
    34   122   121    2
    35    52    46   am
    36    49    51   am
    37    49    48    1
    38   115   116    2
    39   115   114    1
    40    46    47    2
    41    46    45    1
    42   106   103    1
    43   114   113    1
    44   114   117    1
    45   105   104    2
    46    48    45    1
    47   113   104   am
    48    45    44    1
    49   104   103    1
    50   103   102    1
    51   118   117    1
    52    42    41    1
    53    44    35   am
    54    36    35    2
    55   102    98   am
    56    41    43    1
    57    41    40    2
    58    35    34    1
    59    38    39    1
    60    38    37    1
    61    39    40    1
    62    98    99    2
    63    98    97    1
    64    67    68    1
    65    37    34    1
    66    90    89    2
    67    34    33    1
    68    97   100    1
    69    97    96    1
    70    81    79   ar
    71    81    82   ar
    72    31    29   ar
    73    31    32   ar
    74   134   135    1
    75   134   131    1
    76    68    69    1
    77    68    71    1
    78    33    21   am
    79    79    78   ar
    80   100   101    1
    81   133   132    2
    82    89    96   am
    83    89    88    1
    84   132   131    1
    85   136   135   ar
    86   136   138   ar
    87    29    26   ar
    88    70    69    2
    89    69    73   am
    90   135   137   ar
    91   130   131    1
    92    82    84   ar
    93    82    80   ar
    94    84    86   ar
    95    32    30   ar
    96    94    93   ar
    97   138   140   ar
    98    71    72    1
    99    73    74    1
   100    87    88    1
   101    91    88    1
   102    91    92    1
   103    21    22    2
   104    21    20    1
   105   137   139   ar
   106    78    80   ar
   107    78    77    1
   108    92    93    1
   109    93    95   ar
   110    74    77    1
   111    74    75    1
   112    26    24   ar
   113    26    28   ar
   114   140   139   ar
   115    80    83   ar
   116    86    85   ar
   117    30    28   ar
   118    23    20    1
   119    23    24    1
   120    20    19    1
   121    24    25   ar
   122    28    27   ar
   123    75    76    2
   124    83    85   ar
   125    16    15    2
   126    19    15   am
   127    25    27   ar
   128    15    14    1
   129    10     8   ar
   130    10    11   ar
   131    12    11    1
   132     8     6   ar
   133    11     9   ar
   134    18    17    1
   135    14    17    1
   136    14    13    1
   137     6     5    1
   138     6     7   ar
   139     9     7   ar
   140     5     2    1
   141    13     3   am
   142     3     2    1
   143     3     4    2
   144     2     1    1
