@<TRIPOS>MOLECULE
tmp/2cnmA00.pdb
 185 185 0 0 0
SMALL
GASTEIGER

@<TRIPOS>ATOM
      1  N         -7.7230  -34.9990   55.6110 N.3    23  HIS23      -0.1241
      2  CA        -7.9410  -35.9600   54.5250 C.3    23  HIS23       0.1621
      3  C         -8.9240  -37.0600   54.9160 C.2    23  HIS23       0.2264
      4  O         -8.7440  -37.7400   55.9250 O.2    23  HIS23      -0.2867
      5  CB        -6.6100  -36.6180   54.0980 C.3    23  HIS23       0.0745
      6  CG        -5.6850  -35.7050   53.3520 C.ar   23  HIS23       0.0817
      7  ND1       -6.0520  -35.0590   52.1900 N.ar   23  HIS23      -0.2268
      8  CD2       -4.3970  -35.3510   53.5890 C.ar   23  HIS23       0.1154
      9  CE1       -5.0360  -34.3300   51.7540 C.ar   23  HIS23       0.1986
     10  NE2       -4.0210  -34.4850   52.5880 N.ar   23  HIS23      -0.2212
     11  N         -9.1480  -39.7890   53.2230 N.3    25  PHE25      -0.1241
     12  CA        -8.2830  -40.9730   53.0520 C.3    25  PHE25       0.1605
     13  C         -6.8080  -40.6010   53.1990 C.2    25  PHE25       0.2264
     14  O         -6.1110  -40.4340   52.2000 O.2    25  PHE25      -0.2867
     15  CB        -8.5690  -41.6580   51.7090 C.3    25  PHE25       0.0534
     16  CG       -10.0120  -42.0280   51.5340 C.ar   25  PHE25      -0.0203
     17  CD1      -10.4980  -43.2560   52.0290 C.ar   25  PHE25      -0.0042
     18  CD2      -10.9040  -41.1290   50.9320 C.ar   25  PHE25      -0.0042
     19  CE1      -11.8400  -43.6050   51.9090 C.ar   25  PHE25      -0.0003
     20  CE2      -12.2540  -41.4590   50.7940 C.ar   25  PHE25      -0.0003
     21  CZ       -12.7290  -42.7110   51.2950 C.ar   25  PHE25      -0.0000
     22  N         -2.6670  -40.5990   54.1840 N.3    27  TRP27      -0.1227
     23  CA        -1.5820  -41.5670   53.9380 C.3    27  TRP27       0.1737
     24  C         -1.5080  -42.5310   55.1190 C.2    27  TRP27       0.2596
     25  O         -2.1700  -42.3250   56.1340 O.2    27  TRP27      -0.2718
     26  CB        -0.2150  -40.8670   53.7800 C.3    27  TRP27       0.0564
     27  CG        -0.0410  -40.0530   52.5310 C.ar   27  TRP27       0.0003
     28  CD1       -0.7870  -40.1370   51.4000 C.ar   27  TRP27       0.0946
     29  CD2        0.9610  -39.0460   52.2710 C.ar   27  TRP27       0.0152
     30  NE1       -0.3390  -39.2450   50.4680 N.ar   27  TRP27      -0.2442
     31  CE2        0.7390  -38.5680   50.9670 C.ar   27  TRP27       0.0810
     32  CE3        2.0210  -38.4990   53.0160 C.ar   27  TRP27       0.0012
     33  CZ2        1.5320  -37.5720   50.3830 C.ar   27  TRP27       0.0191
     34  CZ3        2.8060  -37.4920   52.4360 C.ar   27  TRP27       0.0001
     35  CH2        2.5500  -37.0430   51.1410 C.ar   27  TRP27       0.0015
     36  N         -0.7160  -43.5900   54.9860 N.am   28  SER28      -0.1952
     37  CA        -0.3450  -44.4120   56.1350 C.3    28  SER28       0.1924
     38  C          0.7620  -43.6910   56.9110 C.2    28  SER28       0.2314
     39  O          1.5910  -42.9720   56.3360 O.2    28  SER28      -0.2863
     40  CB         0.1540  -45.7840   55.6750 C.3    28  SER28       0.2116
     41  OG         1.3260  -45.6750   54.8880 O.3    28  SER28      -0.2180
     42  N          3.5460  -44.7890   58.0180 N.3    30  LYS30      -0.1231
     43  CA         4.8910  -45.0920   57.5020 C.3    30  LYS30       0.1693
     44  C          5.1820  -44.2410   56.2850 C.2    30  LYS30       0.2592
     45  O          6.2230  -43.5760   56.2150 O.2    30  LYS30      -0.2718
     46  CB         5.0380  -46.5680   57.1660 C.3    30  LYS30       0.0285
     47  CG         4.3780  -47.4440   58.2060 C.3    30  LYS30       0.0035
     48  CD         4.3720  -48.9360   57.7990 C.3    30  LYS30       0.0206
     49  CE         5.5410  -49.6910   58.4420 C.3    30  LYS30       0.1093
     50  NZ         5.1150  -51.0340   58.8530 N.3    30  LYS30      -0.1314
     51  N          4.2410  -44.2340   55.3460 N.am   31  THR31      -0.1953
     52  CA         4.3500  -43.3940   54.1650 C.3    31  THR31       0.1897
     53  C          4.4850  -41.9480   54.5890 C.2    31  THR31       0.2313
     54  O          5.3040  -41.1890   54.0410 O.2    31  THR31      -0.2863
     55  CB         3.1450  -43.5860   53.2480 C.3    31  THR31       0.1794
     56  OG1        3.2900  -44.8410   52.5820 O.3    31  THR31      -0.2208
     57  CG2        3.0650  -42.4980   52.2210 C.3    31  THR31       0.0378
     58  N          8.0820  -39.5550   53.9930 N.3    35  ASN35      -0.1240
     59  CA         8.2390  -38.4730   53.0070 C.3    35  ASN35       0.1653
     60  C          8.9440  -37.2170   53.5450 C.2    35  ASN35       0.2266
     61  O          8.4190  -36.0970   53.5030 O.2    35  ASN35      -0.2867
     62  CB         6.9140  -38.1490   52.3010 C.3    35  ASN35       0.1155
     63  CG         6.5710  -39.1630   51.2120 C.2    35  ASN35       0.2627
     64  OD1        6.0380  -40.2380   51.4910 O.2    35  ASN35      -0.2716
     65  ND2        6.8620  -38.8180   49.9690 N.am   35  ASN35      -0.0877
     66  N          7.1390  -31.8280   42.6780 N.3    65  THR65      -0.1203
     67  CA         5.8150  -32.3660   42.8990 C.3    65  THR65       0.1994
     68  C          5.3480  -32.0870   44.3150 C.2    65  THR65       0.2618
     69  O          6.0290  -32.4150   45.2920 O.2    65  THR65      -0.2717
     70  CB         5.7490  -33.8480   42.5300 C.3    65  THR65       0.1784
     71  OG1        6.2430  -34.0160   41.1770 O.3    65  THR65      -0.2211
     72  CG2        4.2980  -34.3340   42.5860 C.3    65  THR65       0.0376
     73  N          4.2160  -31.4100   44.4190 N.am   66  LEU66      -0.1965
     74  CA         3.5720  -31.2380   45.7080 C.3    66  LEU66       0.1728
     75  C          2.7900  -32.5020   45.9720 C.2    66  LEU66       0.2616
     76  O          1.6930  -32.6560   45.4750 O.2    66  LEU66      -0.2715
     77  CB         2.6440  -30.0250   45.7200 C.3    66  LEU66       0.0311
     78  CG         1.7520  -29.8220   46.9580 C.3    66  LEU66       0.0022
     79  CD1        2.4920  -29.1780   48.1440 C.3    66  LEU66       0.0001
     80  CD2        0.5260  -28.9860   46.5910 C.3    66  LEU66       0.0001
     81  N          3.3850  -33.4130   46.7370 N.am   67  PHE67      -0.1960
     82  CA         2.7490  -34.6470   47.1810 C.3    67  PHE67       0.1771
     83  C          1.5540  -34.4700   48.1150 C.2    67  PHE67       0.2620
     84  O          0.7330  -35.3590   48.2020 O.2    67  PHE67      -0.2715
     85  CB         3.7560  -35.5180   47.9320 C.3    67  PHE67       0.0574
     86  CG         4.8520  -36.0720   47.0910 C.ar   67  PHE67      -0.0200
     87  CD1        4.7320  -36.1850   45.7180 C.ar   67  PHE67      -0.0042
     88  CD2        5.9980  -36.5640   47.6950 C.ar   67  PHE67      -0.0042
     89  CE1        5.7770  -36.7480   44.9610 C.ar   67  PHE67      -0.0003
     90  CE2        7.0170  -37.1390   46.9490 C.ar   67  PHE67      -0.0003
     91  CZ         6.9160  -37.2210   45.5950 C.ar   67  PHE67      -0.0000
     92  N          1.4680  -33.3640   48.8470 N.am   68  ASN68      -0.1958
     93  CA         0.4530  -33.2130   49.8850 C.3    68  ASN68       0.1819
     94  C          0.3820  -31.7820   50.3730 C.2    68  ASN68       0.2621
     95  O          1.4040  -31.1970   50.7210 O.2    68  ASN68      -0.2715
     96  CB         0.8020  -34.1250   51.0890 C.3    68  ASN68       0.1195
     97  CG        -0.3840  -34.3630   52.0710 C.2    68  ASN68       0.2630
     98  OD1       -1.4410  -33.7290   51.9950 O.2    68  ASN68      -0.2716
     99  ND2       -0.1960  -35.3090   52.9820 N.am   68  ASN68      -0.0877
    100  N         -0.8210  -31.2220   50.4310 N.am   69  ILE69      -0.1977
    101  CA        -1.0470  -30.0110   51.2110 C.3    69  ILE69       0.1596
    102  C         -2.2750  -30.2090   52.1170 C.2    69  ILE69       0.2287
    103  O         -3.2700  -30.8210   51.7100 O.2    69  ILE69      -0.2864
    104  CB        -1.1210  -28.7270   50.3190 C.3    69  ILE69       0.0276
    105  CG1       -1.1080  -27.4580   51.1940 C.3    69  ILE69       0.0022
    106  CG2       -2.3000  -28.7740   49.2910 C.3    69  ILE69       0.0022
    107  CD1       -1.0960  -26.1730   50.4060 C.3    69  ILE69       0.0001
    108  N          0.9990  -31.6200   40.6900 N.3   102  LEU102     -0.1231
    109  CA         0.1730  -32.1730   41.7920 C.3   102  LEU102      0.1693
    110  C         -0.9560  -33.0400   41.2520 C.2   102  LEU102      0.2592
    111  O         -1.2820  -32.9590   40.0720 O.2   102  LEU102     -0.2718
    112  CB        -0.4030  -31.0540   42.6950 C.3   102  LEU102      0.0284
    113  CG        -1.4580  -30.0340   42.2390 C.3   102  LEU102      0.0019
    114  CD1       -2.8740  -30.5780   42.2050 C.3   102  LEU102      0.0001
    115  CD2       -1.4390  -28.8710   43.1550 C.3   102  LEU102      0.0001
    116  N         -1.5480  -33.8500   42.1340 N.am  103  GLU103     -0.1966
    117  CA        -2.7420  -34.6560   41.8700 C.3   103  GLU103      0.1733
    118  C         -3.8880  -34.1750   42.7810 C.2   103  GLU103      0.2616
    119  O         -3.6910  -33.9070   43.9820 O.2   103  GLU103     -0.2715
    120  CB        -2.4890  -36.1450   42.1800 C.3   103  GLU103      0.0429
    121  CG        -1.5110  -36.8870   41.3140 C.3   103  GLU103      0.1163
    122  CD        -0.0540  -36.7130   41.7510 C.2   103  GLU103      0.3649
    123  OE1        0.2270  -36.5230   42.9770 O.co2 103  GLU103     -0.2457
    124  OE2        0.8270  -36.7790   40.8590 O.co2 103  GLU103     -0.2457
    125  N         -5.0980  -34.1050   42.2420 N.am  104  VAL104     -0.1963
    126  CA        -6.2320  -33.7630   43.0870 C.3   104  VAL104      0.1727
    127  C         -7.4870  -34.5790   42.7500 C.2   104  VAL104      0.2616
    128  O         -7.7510  -34.8920   41.5910 O.2   104  VAL104     -0.2715
    129  CB        -6.4720  -32.2130   43.1290 C.3   104  VAL104      0.0290
    130  CG1       -6.6820  -31.6280   41.7400 C.3   104  VAL104      0.0023
    131  CG2       -7.6050  -31.8660   44.0590 C.3   104  VAL104      0.0023
    132  N         -8.2260  -34.9780   43.7870 N.am  105  ARG105     -0.1977
    133  CA        -9.5170  -35.6330   43.5900 C.3   105  ARG105      0.1597
    134  C        -10.3300  -34.7500   42.6820 C.2   105  ARG105      0.2287
    135  O        -10.3730  -33.5370   42.8630 O.2   105  ARG105     -0.2864
    136  CB       -10.2370  -35.8520   44.9130 C.3   105  ARG105      0.0334
    137  CG        -9.6610  -37.0020   45.6940 C.3   105  ARG105      0.0492
    138  CD       -10.3320  -37.2720   47.0580 C.3   105  ARG105      0.2205
    139  NE        -9.5360  -38.3010   47.7220 N.pl3 105  ARG105     -0.0865
    140  CZ        -9.8000  -39.6060   47.7120 C.cat 105  ARG105      0.5346
    141  NH1      -10.8990  -40.0830   47.1120 N.pl3 105  ARG105      0.1354
    142  NH2       -8.9540  -40.4440   48.3090 N.pl3 105  ARG105      0.1354
    143  N         -6.0400  -23.9660   43.1340 N.3   115  TYR115     -0.1241
    144  CA        -4.9720  -24.2160   42.1880 C.3   115  TYR115      0.1605
    145  C         -5.1720  -23.4520   40.9000 C.2   115  TYR115      0.2264
    146  O         -4.2160  -22.9110   40.3600 O.2   115  TYR115     -0.2867
    147  CB        -4.8150  -25.7000   41.8950 C.3   115  TYR115      0.0534
    148  CG        -4.7250  -26.5370   43.1350 C.ar  115  TYR115     -0.0201
    149  CD1       -4.1150  -26.0550   44.3110 C.ar  115  TYR115     -0.0009
    150  CD2       -5.2580  -27.8090   43.1530 C.ar  115  TYR115     -0.0009
    151  CE1       -4.0500  -26.8450   45.4850 C.ar  115  TYR115      0.0417
    152  CE2       -5.1990  -28.6000   44.3120 C.ar  115  TYR115      0.0417
    153  CZ        -4.6000  -28.1110   45.4650 C.ar  115  TYR115      0.1957
    154  OH        -4.5780  -28.9330   46.5660 O.3   115  TYR115     -0.2866
    155  N         -8.0500  -43.2820   40.2230 N.3   129  TYR129     -0.1227
    156  CA        -6.7920  -43.2030   40.8890 C.3   129  TYR129      0.1736
    157  C         -6.9290  -43.1890   42.4050 C.2   129  TYR129      0.2595
    158  O         -6.0680  -43.7250   43.0940 O.2   129  TYR129     -0.2718
    159  CB        -6.1470  -41.9360   40.4000 C.3   129  TYR129      0.0548
    160  CG        -4.8330  -41.5690   41.0090 C.ar  129  TYR129     -0.0200
    161  CD1       -3.6440  -42.1520   40.5480 C.ar  129  TYR129     -0.0009
    162  CD2       -4.7640  -40.5800   41.9970 C.ar  129  TYR129     -0.0009
    163  CE1       -2.4090  -41.7730   41.0800 C.ar  129  TYR129      0.0417
    164  CE2       -3.5430  -40.1890   42.5310 C.ar  129  TYR129      0.0417
    165  CZ        -2.3610  -40.7860   42.0680 C.ar  129  TYR129      0.1957
    166  OH        -1.1390  -40.3990   42.5990 O.3   129  TYR129     -0.2866
    167  N         -7.9880  -42.5530   42.9130 N.am  130  TYR130     -0.1963
    168  CA        -8.2830  -42.4650   44.3550 C.3   130  TYR130      0.1756
    169  C         -9.4070  -43.4310   44.8200 C.2   130  TYR130      0.2461
    170  O        -10.4180  -43.5980   44.1210 O.2   130  TYR130     -0.2730
    171  CB        -8.7720  -41.0610   44.6850 C.3   130  TYR130      0.0574
    172  CG        -7.7900  -39.9210   44.5410 C.ar  130  TYR130     -0.0198
    173  CD1       -6.8730  -39.6350   45.5570 C.ar  130  TYR130     -0.0009
    174  CD2       -7.8150  -39.0920   43.4170 C.ar  130  TYR130     -0.0009
    175  CE1       -5.9970  -38.5830   45.4520 C.ar  130  TYR130      0.0417
    176  CE2       -6.9460  -38.0340   43.3030 C.ar  130  TYR130      0.0417
    177  CZ        -6.0400  -37.7850   44.3220 C.ar  130  TYR130      0.1957
    178  OH        -5.1630  -36.7360   44.2170 O.3   130  TYR130     -0.2866
    179  N         -9.2840  -44.0020   46.0360 N.am  131  PRO131     -0.2727
    180  CA       -10.4280  -44.7610   46.5490 C.3   131  PRO131      0.1402
    181  C        -11.4720  -43.8050   47.1070 C.2   131  PRO131      0.2269
    182  O        -11.1360  -42.6760   47.4780 O.2   131  PRO131     -0.2865
    183  CB        -9.8190  -45.5840   47.6840 C.3   131  PRO131      0.0296
    184  CG        -8.7230  -44.7070   48.2120 C.3   131  PRO131      0.0237
    185  CD        -8.1720  -43.9630   47.0040 C.3   131  PRO131      0.0939
@<TRIPOS>BOND
     1   111   110    2
     2   155   156    1
     3   146   145    2
     4   159   156    1
     5   159   160    1
     6   161   160   ar
     7   161   163   ar
     8   108   109    1
     9   124   122   ar
    10   156   157    1
    11   145   144    1
    12   160   162   ar
    13   163   165   ar
    14    71    70    1
    15   110   109    1
    16   110   116   am
    17   121   122    1
    18   121   120    1
    19   128   127    2
    20   130   129    1
    21   122   123   ar
    22   109   112    1
    23   117   116    1
    24   117   120    1
    25   117   118    1
    26   147   144    1
    27   147   148    1
    28   162   164   ar
    29   165   164   ar
    30   165   166    1
    31   144   143    1
    32   114   113    1
    33   113   112    1
    34   113   115    1
    35   125   118   am
    36   125   126    1
    37   157   167   am
    38   157   158    2
    39    70    72    1
    40    70    67    1
    41    66    67    1
    42   134   135    2
    43   134   133    1
    44   127   126    1
    45   127   132   am
    46   118   119    2
    47    67    68    1
    48   167   168    1
    49   126   129    1
    50   129   131    1
    51   148   150   ar
    52   148   149   ar
    53   150   152   ar
    54   176   174   ar
    55   176   177   ar
    56   174   172   ar
    57   133   132    1
    58   133   136    1
    59   170   169    2
    60   178   177    1
    61   149   151   ar
    62   152   153   ar
    63    68    73   am
    64    68    69    2
    65   177   175   ar
    66   168   171    1
    67   168   169    1
    68    73    74    1
    69   172   171    1
    70   172   173   ar
    71   169   179   am
    72   136   137    1
    73    89    91   ar
    74    89    87   ar
    75   175   173   ar
    76   153   151   ar
    77   153   154    1
    78    76    75    2
    79    91    90   ar
    80   137   138    1
    81    74    77    1
    82    74    75    1
    83    87    86   ar
    84    77    78    1
    85    75    81   am
    86   179   180    1
    87   179   185    1
    88   180   181    1
    89   180   183    1
    90    80    78    1
    91    81    82    1
    92    90    88   ar
    93    78    79    1
    94   185   184    1
    95   138   139    1
    96    86    88   ar
    97    86    85    1
    98   181   182    2
    99   141   140    1
   100    82    85    1
   101    82    83    1
   102   183   184    1
   103   140   139    2
   104   140   142    1
   105    83    84    2
   106    83    92   am
   107    92    93    1
   108   106   104    1
   109    93    94    1
   110    93    96    1
   111    65    63   am
   112   104   105    1
   113   104   101    1
   114    94   100   am
   115    94    95    2
   116    33    31   ar
   117    33    35   ar
   118   107   105    1
   119   100   101    1
   120    30    31   ar
   121    30    28   ar
   122    20    18   ar
   123    20    21   ar
   124    18    16   ar
   125    31    29   ar
   126    96    97    1
   127    35    34   ar
   128   101   102    1
   129    63    64    2
   130    63    62    1
   131    21    19   ar
   132    28    27   ar
   133    16    15    1
   134    16    17   ar
   135    15    12    1
   136   103   102    2
   137     9     7   ar
   138     9    10   ar
   139    19    17   ar
   140    98    97    2
   141    97    99   am
   142     7     6   ar
   143    14    13    2
   144    57    55    1
   145    29    27   ar
   146    29    32   ar
   147    62    59    1
   148    34    32   ar
   149    27    26    1
   150    56    55    1
   151    10     8   ar
   152    59    60    1
   153    59    58    1
   154    12    13    1
   155    12    11    1
   156    55    52    1
   157     6     8   ar
   158     6     5    1
   159    61    60    2
   160    26    23    1
   161    23    22    1
   162    23    24    1
   163    54    53    2
   164     5     2    1
   165    52    53    1
   166    52    51    1
   167     2     3    1
   168     2     1    1
   169    41    40    1
   170     3     4    2
   171    36    24   am
   172    36    37    1
   173    24    25    2
   174    51    44   am
   175    40    37    1
   176    37    38    1
   177    45    44    2
   178    44    43    1
   179    39    38    2
   180    46    43    1
   181    46    47    1
   182    43    42    1
   183    48    47    1
   184    48    49    1
   185    49    50    1
