@<TRIPOS>MOLECULE
tmp/2cnmA01.pdb
 213 208 0 0 0
SMALL
GASTEIGER

@<TRIPOS>ATOM
      1  N         -7.6530  -33.7480   58.0640 N.3    22  ALA22      -0.1231
      2  CA        -8.0250  -32.9540   56.8980 C.3    22  ALA22       0.1694
      3  C         -8.3030  -33.7980   55.6470 C.2    22  ALA22       0.2592
      4  O         -9.0320  -33.3630   54.7390 O.2    22  ALA22      -0.2718
      5  CB        -6.9610  -31.9690   56.6140 C.3    22  ALA22       0.0304
      6  N         -7.7230  -34.9990   55.6110 N.am   23  HIS23      -0.1976
      7  CA        -7.9410  -35.9600   54.5250 C.3    23  HIS23       0.1656
      8  C         -8.9240  -37.0600   54.9160 C.2    23  HIS23       0.2291
      9  O         -8.7440  -37.7400   55.9250 O.2    23  HIS23      -0.2864
     10  CB        -6.6100  -36.6180   54.0980 C.3    23  HIS23       0.0771
     11  CG        -5.6850  -35.7050   53.3520 C.ar   23  HIS23       0.0820
     12  ND1       -6.0520  -35.0590   52.1900 N.ar   23  HIS23      -0.2267
     13  CD2       -4.3970  -35.3510   53.5890 C.ar   23  HIS23       0.1154
     14  CE1       -5.0360  -34.3300   51.7540 C.ar   23  HIS23       0.1986
     15  NE2       -4.0210  -34.4850   52.5880 N.ar   23  HIS23      -0.2212
     16  N          4.2160  -31.4100   44.4190 N.3    66  LEU66      -0.1245
     17  CA         3.5720  -31.2380   45.7080 C.3    66  LEU66       0.1561
     18  C          2.7900  -32.5020   45.9720 C.2    66  LEU66       0.2260
     19  O          1.6930  -32.6560   45.4750 O.2    66  LEU66      -0.2867
     20  CB         2.6440  -30.0250   45.7200 C.3    66  LEU66       0.0270
     21  CG         1.7520  -29.8220   46.9580 C.3    66  LEU66       0.0019
     22  CD1        2.4920  -29.1780   48.1440 C.3    66  LEU66       0.0001
     23  CD2        0.5260  -28.9860   46.5910 C.3    66  LEU66       0.0001
     24  N         -0.8210  -31.2220   50.4310 N.3    69  ILE69      -0.1231
     25  CA        -1.0470  -30.0110   51.2110 C.3    69  ILE69       0.1692
     26  C         -2.2750  -30.2090   52.1170 C.2    69  ILE69       0.2592
     27  O         -3.2700  -30.8210   51.7100 O.2    69  ILE69      -0.2718
     28  CB        -1.1210  -28.7270   50.3190 C.3    69  ILE69       0.0266
     29  CG1       -1.1080  -27.4580   51.1940 C.3    69  ILE69       0.0019
     30  CG2       -2.3000  -28.7740   49.2910 C.3    69  ILE69       0.0020
     31  CD1       -1.0960  -26.1730   50.4060 C.3    69  ILE69       0.0001
     32  N         -2.1990  -29.6920   53.3430 N.am   70  ALA70      -0.1966
     33  CA        -3.2600  -29.8820   54.3400 C.3    70  ALA70       0.1728
     34  C         -3.3660  -28.7150   55.3100 C.2    70  ALA70       0.2616
     35  O         -2.3990  -28.3730   56.0010 O.2    70  ALA70      -0.2715
     36  CB        -3.0330  -31.1680   55.1220 C.3    70  ALA70       0.0334
     37  N         -4.5470  -28.1190   55.3620 N.am   71  VAL71      -0.1977
     38  CA        -4.8470  -27.1150   56.3370 C.3    71  VAL71       0.1596
     39  C         -5.7910  -27.8190   57.2900 C.2    71  VAL71       0.2287
     40  O         -6.7420  -28.4820   56.8520 O.2    71  VAL71      -0.2864
     41  CB        -5.5470  -25.9060   55.6830 C.3    71  VAL71       0.0276
     42  CG1       -5.9490  -24.8640   56.7400 C.3    71  VAL71       0.0022
     43  CG2       -4.6670  -25.3050   54.5760 C.3    71  VAL71       0.0022
     44  N         -8.5710  -24.4400   60.7860 N.3    75  PHE75      -0.1227
     45  CA        -7.9320  -23.3140   60.1390 C.3    75  PHE75       0.1736
     46  C         -8.3330  -23.0370   58.6860 C.2    75  PHE75       0.2595
     47  O         -7.8230  -22.1010   58.0740 O.2    75  PHE75      -0.2718
     48  CB        -6.4170  -23.4200   60.2930 C.3    75  PHE75       0.0547
     49  CG        -5.9390  -23.0120   61.6470 C.ar   75  PHE75      -0.0202
     50  CD1       -5.8170  -21.6680   61.9740 C.ar   75  PHE75      -0.0042
     51  CD2       -5.6410  -23.9650   62.6120 C.ar   75  PHE75      -0.0042
     52  CE1       -5.3920  -21.2700   63.2450 C.ar   75  PHE75      -0.0003
     53  CE2       -5.2110  -23.5850   63.8900 C.ar   75  PHE75      -0.0003
     54  CZ        -5.0830  -22.2370   64.2060 C.ar   75  PHE75      -0.0000
     55  N         -9.2570  -23.8210   58.1410 N.am   76  GLN76      -0.1965
     56  CA        -9.6160  -23.6960   56.7230 C.3    76  GLN76       0.1733
     57  C        -10.4080  -22.4520   56.3210 C.2    76  GLN76       0.2616
     58  O        -10.9160  -21.7080   57.1490 O.2    76  GLN76      -0.2715
     59  CB       -10.3160  -24.9550   56.2320 C.3    76  GLN76       0.0408
     60  CG        -9.3500  -26.1000   55.9120 C.3    76  GLN76       0.0908
     61  CD       -10.0480  -27.4400   55.8750 C.2    76  GLN76       0.2608
     62  OE1      -11.2680  -27.5130   55.7940 O.2    76  GLN76      -0.2717
     63  NE2       -9.2850  -28.5010   55.9230 N.am   76  GLN76      -0.0878
     64  N        -10.4970  -22.2470   55.0190 N.am   77  ARG77      -0.1963
     65  CA       -11.1640  -21.0950   54.4290 C.3    77  ARG77       0.1729
     66  C        -10.8070  -19.7930   55.1210 C.2    77  ARG77       0.2616
     67  O        -11.6410  -18.9070   55.2330 O.2    77  ARG77      -0.2715
     68  CB       -12.6860  -21.2900   54.3820 C.3    77  ARG77       0.0348
     69  CG       -13.1640  -22.2260   53.2510 C.3    77  ARG77       0.0492
     70  CD       -14.5730  -22.7900   53.5340 C.3    77  ARG77       0.2205
     71  NE       -14.6980  -23.0560   54.9690 N.pl3  77  ARG77      -0.0865
     72  CZ       -15.8360  -23.0780   55.6520 C.cat  77  ARG77       0.5346
     73  NH1      -17.0020  -22.8650   55.0360 N.pl3  77  ARG77       0.1354
     74  NH2      -15.7950  -23.3140   56.9620 N.pl3  77  ARG77       0.1354
     75  N         -9.5650  -19.6730   55.5760 N.am   78  ARG78      -0.1963
     76  CA        -9.0870  -18.4060   56.1360 C.3    78  ARG78       0.1729
     77  C         -7.8900  -17.8640   55.3360 C.2    78  ARG78       0.2617
     78  O         -7.2110  -16.9420   55.7880 O.2    78  ARG78      -0.2715
     79  CB        -8.7380  -18.5470   57.6300 C.3    78  ARG78       0.0348
     80  CG        -9.8960  -18.9680   58.5610 C.3    78  ARG78       0.0492
     81  CD        -9.7680  -18.2650   59.9030 C.3    78  ARG78       0.2205
     82  NE        -9.8540  -19.1470   61.0750 N.pl3  78  ARG78      -0.0865
     83  CZ        -9.2040  -18.9310   62.2300 C.cat  78  ARG78       0.5346
     84  NH1       -8.3980  -17.8710   62.3620 N.pl3  78  ARG78       0.1354
     85  NH2       -9.3410  -19.7800   63.2540 N.pl3  78  ARG78       0.1354
     86  N         -7.6410  -18.4380   54.1500 N.am   79  GLY79      -0.1940
     87  CA        -6.5680  -17.9790   53.2600 C.3    79  GLY79       0.2014
     88  C         -5.1650  -18.4920   53.5620 C.2    79  GLY79       0.2639
     89  O         -4.1790  -17.9930   53.0000 O.2    79  GLY79      -0.2714
     90  N         -5.0630  -19.4790   54.4490 N.am   80  LEU80      -0.1963
     91  CA        -3.7690  -19.9990   54.8660 C.3    80  LEU80       0.1728
     92  C         -3.2440  -20.9800   53.8490 C.2    80  LEU80       0.2617
     93  O         -2.0430  -21.0170   53.5900 O.2    80  LEU80      -0.2715
     94  CB        -3.8490  -20.6220   56.2590 C.3    80  LEU80       0.0311
     95  CG        -4.3180  -19.5900   57.2890 C.3    80  LEU80       0.0022
     96  CD1       -4.4140  -20.2100   58.6670 C.3    80  LEU80       0.0001
     97  CD2       -3.4240  -18.3240   57.3160 C.3    80  LEU80       0.0001
     98  N         -4.1500  -21.7490   53.2540 N.am   81  GLY81      -0.1940
     99  CA        -3.7940  -22.6560   52.1890 C.3    81  GLY81       0.2014
    100  C         -3.0850  -21.9520   51.0660 C.2    81  GLY81       0.2638
    101  O         -1.9840  -22.3290   50.7120 O.2    81  GLY81      -0.2714
    102  N         -3.7170  -20.9080   50.5320 N.am   82  ARG82      -0.1977
    103  CA        -3.1520  -20.1020   49.4690 C.3    82  ARG82       0.1597
    104  C         -1.8450  -19.4910   49.9060 C.2    82  ARG82       0.2287
    105  O         -0.8590  -19.5190   49.1690 O.2    82  ARG82      -0.2864
    106  CB        -4.1030  -18.9860   49.0930 C.3    82  ARG82       0.0334
    107  CG        -3.4430  -17.8100   48.3830 C.3    82  ARG82       0.0492
    108  CD        -4.4680  -16.7410   47.9710 C.3    82  ARG82       0.2205
    109  NE        -4.9220  -16.9880   46.5980 N.pl3  82  ARG82      -0.0865
    110  CZ        -6.1220  -17.4640   46.2770 C.cat  82  ARG82       0.5346
    111  NH1       -7.0200  -17.7170   47.2230 N.pl3  82  ARG82       0.1354
    112  NH2       -6.4250  -17.6790   45.0100 N.pl3  82  ARG82       0.1354
    113  N          0.9990  -31.6200   40.6900 N.3   102  LEU102     -0.1231
    114  CA         0.1730  -32.1730   41.7920 C.3   102  LEU102      0.1693
    115  C         -0.9560  -33.0400   41.2520 C.2   102  LEU102      0.2592
    116  O         -1.2820  -32.9590   40.0720 O.2   102  LEU102     -0.2718
    117  CB        -0.4030  -31.0540   42.6950 C.3   102  LEU102      0.0284
    118  CG        -1.4580  -30.0340   42.2390 C.3   102  LEU102      0.0019
    119  CD1       -2.8740  -30.5780   42.2050 C.3   102  LEU102      0.0001
    120  CD2       -1.4390  -28.8710   43.1550 C.3   102  LEU102      0.0001
    121  N         -1.5480  -33.8500   42.1340 N.am  103  GLU103     -0.1966
    122  CA        -2.7420  -34.6560   41.8700 C.3   103  GLU103      0.1733
    123  C         -3.8880  -34.1750   42.7810 C.2   103  GLU103      0.2616
    124  O         -3.6910  -33.9070   43.9820 O.2   103  GLU103     -0.2715
    125  CB        -2.4890  -36.1450   42.1800 C.3   103  GLU103      0.0429
    126  CG        -1.5110  -36.8870   41.3140 C.3   103  GLU103      0.1163
    127  CD        -0.0540  -36.7130   41.7510 C.2   103  GLU103      0.3649
    128  OE1        0.2270  -36.5230   42.9770 O.co2 103  GLU103     -0.2457
    129  OE2        0.8270  -36.7790   40.8590 O.co2 103  GLU103     -0.2457
    130  N         -5.0980  -34.1050   42.2420 N.am  104  VAL104     -0.1963
    131  CA        -6.2320  -33.7630   43.0870 C.3   104  VAL104      0.1727
    132  C         -7.4870  -34.5790   42.7500 C.2   104  VAL104      0.2616
    133  O         -7.7510  -34.8920   41.5910 O.2   104  VAL104     -0.2715
    134  CB        -6.4720  -32.2130   43.1290 C.3   104  VAL104      0.0290
    135  CG1       -6.6820  -31.6280   41.7400 C.3   104  VAL104      0.0023
    136  CG2       -7.6050  -31.8660   44.0590 C.3   104  VAL104      0.0023
    137  N         -8.2260  -34.9780   43.7870 N.am  105  ARG105     -0.1977
    138  CA        -9.5170  -35.6330   43.5900 C.3   105  ARG105      0.1597
    139  C        -10.3300  -34.7500   42.6820 C.2   105  ARG105      0.2287
    140  O        -10.3730  -33.5370   42.8630 O.2   105  ARG105     -0.2864
    141  CB       -10.2370  -35.8520   44.9130 C.3   105  ARG105      0.0334
    142  CG        -9.6610  -37.0020   45.6940 C.3   105  ARG105      0.0492
    143  CD       -10.3320  -37.2720   47.0580 C.3   105  ARG105      0.2205
    144  NE        -9.5360  -38.3010   47.7220 N.pl3 105  ARG105     -0.0865
    145  CZ        -9.8000  -39.6060   47.7120 C.cat 105  ARG105      0.5346
    146  NH1      -10.8990  -40.0830   47.1120 N.pl3 105  ARG105      0.1354
    147  NH2       -8.9540  -40.4440   48.3090 N.pl3 105  ARG105      0.1354
    148  N        -12.8300  -32.3830   44.3400 N.3   108  ASN108     -0.1225
    149  CA       -12.4270  -31.3720   45.2920 C.3   108  ASN108      0.1785
    150  C        -12.5230  -29.9840   44.6300 C.2   108  ASN108      0.2597
    151  O        -11.5400  -29.4590   44.1080 O.2   108  ASN108     -0.2718
    152  CB       -11.0270  -31.6850   45.7710 C.3   108  ASN108      0.1169
    153  CG       -10.6480  -30.9050   46.9860 C.2   108  ASN108      0.2627
    154  OD1      -11.2810  -29.8880   47.3230 O.2   108  ASN108     -0.2716
    155  ND2       -9.5900  -31.3470   47.6510 N.am  108  ASN108     -0.0877
    156  N        -13.7330  -29.4220   44.6230 N.am  109  ALA109     -0.1966
    157  CA       -14.0330  -28.1440   43.9490 C.3   109  ALA109      0.1728
    158  C        -13.2440  -26.9880   44.5660 C.2   109  ALA109      0.2616
    159  O        -12.7490  -26.0980   43.8550 O.2   109  ALA109     -0.2715
    160  CB       -15.5330  -27.8510   44.0060 C.3   109  ALA109      0.0334
    161  N        -13.1380  -27.0360   45.8950 N.am  110  ALA110     -0.1963
    162  CA       -12.2660  -26.1530   46.6590 C.3   110  ALA110      0.1728
    163  C        -10.8220  -26.1620   46.1460 C.2   110  ALA110      0.2616
    164  O        -10.3080  -25.1220   45.7240 O.2   110  ALA110     -0.2715
    165  CB       -12.2960  -26.5180   48.1340 C.3   110  ALA110      0.0334
    166  N        -10.1660  -27.3140   46.1890 N.am  111  ALA111     -0.1977
    167  CA        -8.7310  -27.3340   45.9520 C.3   111  ALA111      0.1597
    168  C         -8.4620  -26.9030   44.5280 C.2   111  ALA111      0.2287
    169  O         -7.5750  -26.0750   44.2940 O.2   111  ALA111     -0.2864
    170  CB        -8.1510  -28.6880   46.2200 C.3   111  ALA111      0.0319
    171  N        -10.2170  -25.0310   42.4910 N.3   113  ALA113     -0.1231
    172  CA       -10.4040  -23.5880   42.3050 C.3   113  ALA113      0.1694
    173  C         -9.2260  -22.8120   42.8650 C.2   113  ALA113      0.2592
    174  O         -8.8050  -21.8080   42.2640 O.2   113  ALA113     -0.2718
    175  CB       -11.7000  -23.1030   42.9160 C.3   113  ALA113      0.0304
    176  N         -8.6750  -23.2730   43.9940 N.am  114  LEU114     -0.1966
    177  CA        -7.4890  -22.6220   44.5540 C.3   114  LEU114      0.1728
    178  C         -6.3380  -22.7310   43.5400 C.2   114  LEU114      0.2616
    179  O         -5.7720  -21.7090   43.1140 O.2   114  LEU114     -0.2715
    180  CB        -7.0960  -23.2340   45.8930 C.3   114  LEU114      0.0311
    181  CG        -5.6780  -22.9050   46.3770 C.3   114  LEU114      0.0022
    182  CD1       -5.5630  -21.4530   46.8250 C.3   114  LEU114      0.0001
    183  CD2       -5.2490  -23.8280   47.4860 C.3   114  LEU114      0.0001
    184  N         -6.0400  -23.9660   43.1340 N.am  115  TYR115     -0.1974
    185  CA        -4.9720  -24.2160   42.1880 C.3   115  TYR115      0.1639
    186  C         -5.1720  -23.4520   40.9000 C.2   115  TYR115      0.2290
    187  O         -4.2160  -22.9110   40.3600 O.2   115  TYR115     -0.2864
    188  CB        -4.8150  -25.7000   41.8950 C.3   115  TYR115      0.0560
    189  CG        -4.7250  -26.5370   43.1350 C.ar  115  TYR115     -0.0198
    190  CD1       -4.1150  -26.0550   44.3110 C.ar  115  TYR115     -0.0009
    191  CD2       -5.2580  -27.8090   43.1530 C.ar  115  TYR115     -0.0009
    192  CE1       -4.0500  -26.8450   45.4850 C.ar  115  TYR115      0.0417
    193  CE2       -5.1990  -28.6000   44.3120 C.ar  115  TYR115      0.0417
    194  CZ        -4.6000  -28.1110   45.4650 C.ar  115  TYR115      0.1957
    195  OH        -4.5780  -28.9330   46.5660 O.3   115  TYR115     -0.2866
    196  N         -6.7500  -20.6760   40.4260 N.3   117  SER117     -0.1217
    197  CA        -6.5060  -19.2550   40.6650 C.3   117  SER117      0.1889
    198  C         -5.0270  -18.9250   40.9040 C.2   117  SER117      0.2288
    199  O         -4.6270  -17.7680   40.7590 O.2   117  SER117     -0.2866
    200  CB        -7.3620  -18.7260   41.8140 C.3   117  SER117      0.2089
    201  OG        -6.8440  -19.1440   43.0500 O.3   117  SER117     -0.2183
    202  N         -7.9880  -42.5530   42.9130 N.3   130  TYR130     -0.1241
    203  CA        -8.2830  -42.4650   44.3550 C.3   130  TYR130      0.1605
    204  C         -9.4070  -43.4310   44.8200 C.2   130  TYR130      0.2264
    205  O        -10.4180  -43.5980   44.1210 O.2   130  TYR130     -0.2867
    206  CB        -8.7720  -41.0610   44.6850 C.3   130  TYR130      0.0534
    207  CG        -7.7900  -39.9210   44.5410 C.ar  130  TYR130     -0.0201
    208  CD1       -6.8730  -39.6350   45.5570 C.ar  130  TYR130     -0.0009
    209  CD2       -7.8150  -39.0920   43.4170 C.ar  130  TYR130     -0.0009
    210  CE1       -5.9970  -38.5830   45.4520 C.ar  130  TYR130      0.0417
    211  CE2       -6.9460  -38.0340   43.3030 C.ar  130  TYR130      0.0417
    212  CZ        -6.0400  -37.7850   44.3220 C.ar  130  TYR130      0.1957
    213  OH        -5.1630  -36.7360   44.2170 O.3   130  TYR130     -0.2866
@<TRIPOS>BOND
     1   116   115    2
     2   187   186    2
     3   196   197    1
     4   197   198    1
     5   197   200    1
     6   113   114    1
     7   199   198    2
     8   129   127   ar
     9   186   185    1
    10   115   114    1
    11   115   121   am
    12   126   127    1
    13   126   125    1
    14   133   132    2
    15   135   134    1
    16   127   128   ar
    17   114   117    1
    18   200   201    1
    19   122   121    1
    20   122   125    1
    21   122   123    1
    22   188   185    1
    23   188   189    1
    24   185   184    1
    25   119   118    1
    26   118   117    1
    27   118   120    1
    28   130   123   am
    29   130   131    1
    30   174   173    2
    31   172   171    1
    32   172   173    1
    33   172   175    1
    34   139   140    2
    35   139   138    1
    36   132   131    1
    37   132   137   am
    38   123   124    2
    39   173   176   am
    40   202   203    1
    41   131   134    1
    42   179   178    2
    43   134   136    1
    44   184   178   am
    45   189   191   ar
    46   189   190   ar
    47   191   193   ar
    48   211   209   ar
    49   211   212   ar
    50   209   207   ar
    51   178   177    1
    52   138   137    1
    53   138   141    1
    54   159   158    2
    55   157   160    1
    56   157   158    1
    57   157   156    1
    58   176   177    1
    59   151   150    2
    60   205   204    2
    61   213   212    1
    62   169   168    2
    63   190   192   ar
    64   193   194   ar
    65   212   210   ar
    66   148   149    1
    67   203   206    1
    68   203   204    1
    69    16    17    1
    70   168   167    1
    71   207   206    1
    72   207   208   ar
    73   177   180    1
    74   158   161   am
    75   156   150   am
    76   150   149    1
    77   141   142    1
    78   112   110    1
    79   149   152    1
    80   210   208   ar
    81   194   192   ar
    82   194   195    1
    83    19    18    2
    84   142   143    1
    85    17    20    1
    86    17    18    1
    87    20    21    1
    88   164   163    2
    89   152   153    1
    90   180   181    1
    91   161   162    1
    92   167   166    1
    93   167   170    1
    94   163   166   am
    95   163   162    1
    96   110   109    2
    97   110   111    1
    98   181   182    1
    99   181   183    1
   100    23    21    1
   101   109   108    1
   102   162   165    1
   103    21    22    1
   104   153   154    2
   105   153   155   am
   106   143   144    1
   107   146   145    1
   108   145   144    2
   109   145   147    1
   110   108   107    1
   111   107   106    1
   112   106   103    1
   113   105   104    2
   114    30    28    1
   115   103   104    1
   116   103   102    1
   117    28    29    1
   118    28    25    1
   119    31    29    1
   120    24    25    1
   121   102   100   am
   122   101   100    2
   123   100    99    1
   124    25    26    1
   125    27    26    2
   126    14    12   ar
   127    14    15   ar
   128    26    32   am
   129    99    98    1
   130    12    11   ar
   131    15    13   ar
   132    89    88    2
   133    69    70    1
   134    69    68    1
   135    98    92   am
   136    87    88    1
   137    87    86    1
   138    32    33    1
   139    11    13   ar
   140    11    10    1
   141    70    71    1
   142    88    90   am
   143    93    92    2
   144    92    91    1
   145    10     7    1
   146    86    77   am
   147    33    36    1
   148    33    34    1
   149    68    65    1
   150    65    64    1
   151    65    66    1
   152    90    91    1
   153     7     8    1
   154     7     6    1
   155    43    41    1
   156     4     3    2
   157    91    94    1
   158     8     9    2
   159    71    72    2
   160    64    57   am
   161    73    72    1
   162    66    67    2
   163    66    75   am
   164    34    37   am
   165    34    35    2
   166    77    78    2
   167    77    76    1
   168    37    38    1
   169    75    76    1
   170     6     3   am
   171     3     2    1
   172    72    74    1
   173    41    38    1
   174    41    42    1
   175    62    61    2
   176    61    60    1
   177    61    63   am
   178    60    59    1
   179    76    79    1
   180    59    56    1
   181    94    95    1
   182    57    56    1
   183    57    58    2
   184    38    39    1
   185     5     2    1
   186    56    55    1
   187    40    39    2
   188     2     1    1
   189    95    97    1
   190    95    96    1
   191    79    80    1
   192    47    46    2
   193    55    46   am
   194    80    81    1
   195    46    45    1
   196    81    82    1
   197    45    48    1
   198    45    44    1
   199    48    49    1
   200    82    83    2
   201    49    50   ar
   202    49    51   ar
   203    50    52   ar
   204    83    84    1
   205    83    85    1
   206    51    53   ar
   207    52    54   ar
   208    53    54   ar
