@<TRIPOS>MOLECULE
tmp/2cnnA00.pdb
 105 101 0 0 0
SMALL
GASTEIGER

@<TRIPOS>ATOM
      1  N         26.5340   44.9580   25.6790 N.3    31  THR31      -0.1218
      2  CA        27.4160   44.5430   26.7710 C.3    31  THR31       0.1862
      3  C         28.8410   44.3500   26.2680 C.2    31  THR31       0.2287
      4  O         29.7940   44.3880   27.0420 O.2    31  THR31      -0.2866
      5  CB        26.9730   43.2040   27.4050 C.3    31  THR31       0.1770
      6  OG1       27.2710   42.1300   26.5050 O.3    31  THR31      -0.2211
      7  CG2       25.4810   43.2140   27.7050 C.3    31  THR31       0.0375
      8  N         30.1740   41.7550   25.4980 N.3    33  MET33      -0.1230
      9  CA        30.6690   40.4290   25.8510 C.3    33  MET33       0.1702
     10  C         30.8160   39.5580   24.6090 C.2    33  MET33       0.2593
     11  O         29.9250   39.5070   23.7590 O.2    33  MET33      -0.2718
     12  CB        29.7370   39.7550   26.8650 C.3    33  MET33       0.0401
     13  CG        29.7400   40.4260   28.2280 C.3    33  MET33       0.0596
     14  SD        28.9740   39.4420   29.5380 S.3    33  MET33      -0.1393
     15  CE        27.3500   40.2120   29.6330 C.3    33  MET33       0.0692
     16  N         31.9490   38.8720   24.5160 N.am   34  THR34      -0.1939
     17  CA        32.2410   38.0170   23.3750 C.3    34  THR34       0.2028
     18  C         31.4500   36.7160   23.3700 C.2    34  THR34       0.2643
     19  O         31.1420   36.1540   24.4240 O.2    34  THR34      -0.2714
     20  CB        33.7360   37.6680   23.3220 C.3    34  THR34       0.1808
     21  OG1       34.1000   36.9500   24.5060 O.3    34  THR34      -0.2208
     22  CG2       34.5710   38.9330   23.2290 C.3    34  THR34       0.0379
     23  N         31.1270   36.2440   22.1710 N.am   35  SER35      -0.1935
     24  CA        30.3880   35.0010   22.0140 C.3    35  SER35       0.2055
     25  C         31.2530   33.8720   22.5530 C.2    35  SER35       0.2643
     26  O         32.4680   33.8590   22.3560 O.2    35  SER35      -0.2714
     27  CB        30.0640   34.7590   20.5400 C.3    35  SER35       0.2130
     28  OG        31.2480   34.6850   19.7660 O.3    35  SER35      -0.2179
     29  N         30.6230   32.9200   23.2290 N.am   36  ARG36      -0.1963
     30  CA        31.3500   31.8060   23.8200 C.3    36  ARG36       0.1729
     31  C         31.4390   30.5980   22.8920 C.2    36  ARG36       0.2616
     32  O         30.7210   29.6110   23.0570 O.2    36  ARG36      -0.2715
     33  CB        30.6910   31.4340   25.1530 C.3    36  ARG36       0.0348
     34  CG        30.6910   32.5960   26.1490 C.3    36  ARG36       0.0492
     35  CD        30.0320   32.2520   27.4790 C.3    36  ARG36       0.2205
     36  NE        30.6360   31.0660   28.0730 N.pl3  36  ARG36      -0.0865
     37  CZ        30.1310   29.8420   27.9740 C.cat  36  ARG36       0.5346
     38  NH1       28.9960   29.6420   27.3140 N.pl3  36  ARG36       0.1354
     39  NH2       30.7820   28.8130   28.5040 N.pl3  36  ARG36       0.1354
     40  N         32.3370   30.6850   21.9150 N.am   37  SER37      -0.1950
     41  CA        32.5320   29.6120   20.9490 C.3    37  SER37       0.1924
     42  C         32.8130   28.2780   21.6220 C.2    37  SER37       0.2314
     43  O         33.6090   28.1940   22.5580 O.2    37  SER37      -0.2863
     44  CB        33.6850   29.9530   20.0020 C.3    37  SER37       0.2116
     45  OG        33.3700   31.0880   19.2140 O.3    37  SER37      -0.2180
     46  N         28.3260   30.0880   30.9080 N.3    92  SER92      -0.1202
     47  CA        28.3610   31.4970   30.5280 C.3    92  SER92       0.2020
     48  C         29.6180   32.1810   31.0340 C.2    92  SER92       0.2619
     49  O         30.5250   31.5340   31.5550 O.2    92  SER92      -0.2717
     50  CB        27.1340   32.2090   31.1090 C.3    92  SER92       0.2103
     51  OG        27.0090   33.5280   30.6060 O.3    92  SER92      -0.2182
     52  N         29.6820   33.4950   30.8450 N.am   93  HIS93      -0.1961
     53  CA        30.8000   34.2720   31.3510 C.3    93  HIS93       0.1787
     54  C         30.4310   34.4660   32.8100 C.2    93  HIS93       0.2621
     55  O         29.2760   34.2700   33.1860 O.2    93  HIS93      -0.2715
     56  CB        30.8780   35.6440   30.6740 C.3    93  HIS93       0.0785
     57  CG        31.3560   35.5960   29.2570 C.ar   93  HIS93       0.0821
     58  ND1       32.6020   35.1210   28.9090 N.ar   93  HIS93      -0.2267
     59  CD2       30.7580   35.9690   28.1010 C.ar   93  HIS93       0.1154
     60  CE1       32.7510   35.2030   27.5990 C.ar   93  HIS93       0.1986
     61  NE2       31.6470   35.7140   27.0850 N.ar   93  HIS93      -0.2212
     62  N         31.4010   34.8490   33.6310 N.am   94  GLY94      -0.1940
     63  CA        31.1080   35.0710   35.0320 C.3    94  GLY94       0.2014
     64  C         32.2650   35.6620   35.8060 C.2    94  GLY94       0.2638
     65  O         33.3390   35.9030   35.2620 O.2    94  GLY94      -0.2714
     66  N         32.0130   35.9160   37.0840 N.am   95  GLU95      -0.1977
     67  CA        33.0030   36.4420   38.0100 C.3    95  GLU95       0.1602
     68  C         32.6890   35.7140   39.3020 C.2    95  GLU95       0.2287
     69  O         31.7300   34.9480   39.3560 O.2    95  GLU95      -0.2864
     70  CB        32.8240   37.9430   38.2220 C.3    95  GLU95       0.0415
     71  CG        32.9740   38.7710   36.9740 C.3    95  GLU95       0.1163
     72  CD        33.0350   40.2450   37.2850 C.2    95  GLU95       0.3649
     73  OE1       32.0980   40.7560   37.9350 O.co2  95  GLU95      -0.2457
     74  OE2       34.0240   40.8910   36.8810 O.co2  95  GLU95      -0.2457
     75  N         30.2060   26.4670   34.7540 N.3   133  GLN133     -0.1231
     76  CA        31.3100   26.6970   33.8250 C.3   133  GLN133      0.1698
     77  C         31.3270   28.2060   33.5820 C.2   133  GLN133      0.2592
     78  O         30.5190   28.7260   32.8180 O.2   133  GLN133     -0.2718
     79  CB        31.0680   25.9350   32.5120 C.3   133  GLN133      0.0381
     80  CG        31.9980   26.3090   31.3460 C.3   133  GLN133      0.0905
     81  CD        33.4700   26.3320   31.7320 C.2   133  GLN133      0.2608
     82  OE1       33.9590   25.4370   32.4240 O.2   133  GLN133     -0.2717
     83  NE2       34.1850   27.3530   31.2730 N.am  133  GLN133     -0.0878
     84  N         32.2360   28.8990   34.2640 N.am  134  ALA134     -0.1966
     85  CA        32.3630   30.3530   34.1610 C.3   134  ALA134      0.1728
     86  C         33.5660   30.8210   34.9760 C.2   134  ALA134      0.2616
     87  O         34.0010   30.1200   35.8880 O.2   134  ALA134     -0.2715
     88  CB        31.0880   31.0220   34.6890 C.3   134  ALA134      0.0334
     89  N         34.1070   31.9970   34.6510 N.am  135  CYS135     -0.1968
     90  CA        35.2470   32.5300   35.3990 C.3   135  CYS135      0.1712
     91  C         34.7830   32.8690   36.7980 C.2   135  CYS135      0.2296
     92  O         33.6030   33.1420   37.0200 O.2   135  CYS135     -0.2864
     93  CB        35.8190   33.8080   34.7460 C.3   135  CYS135      0.0983
     94  SG        36.6610   33.4580   33.2060 S.3   135  CYS135     -0.0798
     95  N         36.9280   34.9380   38.4800 N.3   137  GLY137     -0.1210
     96  CA        37.8900   36.0010   38.6920 C.3   137  GLY137      0.1956
     97  C         38.8510   36.0410   37.5200 C.2   137  GLY137      0.2612
     98  O         38.6220   35.3860   36.5010 O.2   137  GLY137     -0.2717
     99  N         39.9330   36.7950   37.6660 N.am  138  THR138     -0.1952
    100  CA        40.9100   36.9250   36.5950 C.3   138  THR138      0.1897
    101  C         42.3080   36.4370   36.9600 C.2   138  THR138      0.2313
    102  O         43.2890   36.8330   36.3330 O.2   138  THR138     -0.2863
    103  CB        41.0180   38.3890   36.1400 C.3   138  THR138      0.1794
    104  OG1       41.3420   39.2090   37.2680 O.3   138  THR138     -0.2208
    105  CG2       39.7030   38.8600   35.5410 C.3   138  THR138      0.0378
@<TRIPOS>BOND
     1    45    44    1
     2    28    27    1
     3    44    41    1
     4    27    24    1
     5    41    42    1
     6    41    40    1
     7    42    43    2
     8    40    31   am
     9    24    23    1
    10    24    25    1
    11    23    18   am
    12    26    25    2
    13    25    29   am
    14    31    32    2
    15    31    30    1
    16    29    30    1
    17    22    20    1
    18    20    17    1
    19    20    21    1
    20    18    17    1
    21    18    19    2
    22    17    16    1
    23    11    10    2
    24    30    33    1
    25    16    10   am
    26    10     9    1
    27    33    34    1
    28     8     9    1
    29     1     2    1
    30     9    12    1
    31    34    35    1
    32     3     2    1
    33     3     4    2
    34     6     5    1
    35     2     5    1
    36    12    13    1
    37    61    60   ar
    38    61    59   ar
    39    38    37    1
    40     5     7    1
    41    35    36    1
    42    60    58   ar
    43    37    36    2
    44    37    39    1
    45    59    57   ar
    46    13    14    1
    47    58    57   ar
    48    57    56    1
    49    14    15    1
    50    47    46    1
    51    47    48    1
    52    47    50    1
    53    51    50    1
    54    56    53    1
    55    52    48   am
    56    52    53    1
    57    48    49    2
    58    83    81   am
    59    80    81    1
    60    80    79    1
    61    53    54    1
    62    81    82    2
    63    79    76    1
    64    54    55    2
    65    54    62   am
    66    78    77    2
    67    94    93    1
    68    77    76    1
    69    77    84   am
    70    62    63    1
    71    76    75    1
    72    85    84    1
    73    85    88    1
    74    85    86    1
    75    89    86   am
    76    89    90    1
    77    93    90    1
    78    86    87    2
    79    63    64    1
    80    65    64    2
    81    90    91    1
    82   105   103    1
    83    64    66   am
    84   103   100    1
    85   103   104    1
    86   102   101    2
    87    98    97    2
    88   100   101    1
    89   100    99    1
    90    91    92    2
    91    74    72   ar
    92    71    72    1
    93    71    70    1
    94    66    67    1
    95    72    73   ar
    96    97    99   am
    97    97    96    1
    98    67    70    1
    99    67    68    1
   100    95    96    1
   101    68    69    2
