@<TRIPOS>MOLECULE
tmp/2cnnB00.pdb
 131 135 0 0 0
SMALL
GASTEIGER

@<TRIPOS>ATOM
      1  N         40.4680   32.1950   36.2890 N.3    30  TYR30      -0.1227
      2  CA        39.8700   32.1110   34.9680 C.3    30  TYR30       0.1736
      3  C         39.4200   30.6710   34.7570 C.2    30  TYR30       0.2596
      4  O         39.8980   29.7590   35.4320 O.2    30  TYR30      -0.2718
      5  CB        40.8980   32.4390   33.8820 C.3    30  TYR30       0.0548
      6  CG        41.1240   33.9090   33.6110 C.ar   30  TYR30      -0.0200
      7  CD1       42.2430   34.5670   34.1110 C.ar   30  TYR30      -0.0009
      8  CD2       40.2400   34.6300   32.8140 C.ar   30  TYR30      -0.0009
      9  CE1       42.4810   35.9090   33.8140 C.ar   30  TYR30       0.0417
     10  CE2       40.4650   35.9690   32.5150 C.ar   30  TYR30       0.0417
     11  CZ        41.5870   36.6020   33.0160 C.ar   30  TYR30       0.1957
     12  OH        41.8160   37.9260   32.7140 O.3    30  TYR30      -0.2866
     13  N         38.4970   30.4810   33.8210 N.am   31  SER31      -0.1938
     14  CA        38.0080   29.1560   33.4580 C.3    31  SER31       0.2055
     15  C         38.2400   29.0980   31.9540 C.2    31  SER31       0.2643
     16  O         37.7590   29.9640   31.2230 O.2    31  SER31      -0.2714
     17  CB        36.5190   29.0110   33.7620 C.3    31  SER31       0.2130
     18  OG        36.0720   27.7120   33.4090 O.3    31  SER31      -0.2179
     19  N         38.9730   28.0880   31.4960 N.am   32  TRP32      -0.1959
     20  CA        39.3010   27.9690   30.0790 C.3    32  TRP32       0.1771
     21  C         38.3380   27.1600   29.2230 C.2    32  TRP32       0.2620
     22  O         37.7850   26.1500   29.6550 O.2    32  TRP32      -0.2715
     23  CB        40.7160   27.4080   29.9200 C.3    32  TRP32       0.0590
     24  CG        41.7410   28.1920   30.6850 C.ar   32  TRP32       0.0006
     25  CD1       42.1820   27.9460   31.9520 C.ar   32  TRP32       0.0946
     26  CD2       42.4080   29.3860   30.2530 C.ar   32  TRP32       0.0152
     27  NE1       43.0800   28.9140   32.3400 N.ar   32  TRP32      -0.2442
     28  CE2       43.2350   29.8110   31.3160 C.ar   32  TRP32       0.0810
     29  CE3       42.3830   30.1420   29.0720 C.ar   32  TRP32       0.0012
     30  CZ2       44.0350   30.9580   31.2350 C.ar   32  TRP32       0.0191
     31  CZ3       43.1810   31.2850   28.9900 C.ar   32  TRP32       0.0001
     32  CH2       43.9930   31.6800   30.0680 C.ar   32  TRP32       0.0015
     33  N         38.1670   27.6120   27.9860 N.am   33  ARG33      -0.1963
     34  CA        37.2710   26.9630   27.0420 C.3    33  ARG33       0.1729
     35  C         37.8810   26.9220   25.6460 C.2    33  ARG33       0.2616
     36  O         38.3490   27.9370   25.1340 O.2    33  ARG33      -0.2715
     37  CB        35.9350   27.7150   27.0170 C.3    33  ARG33       0.0348
     38  CG        35.0180   27.3900   25.8460 C.3    33  ARG33       0.0492
     39  CD        33.6590   28.0530   26.0440 C.3    33  ARG33       0.2205
     40  NE        33.7900   29.4440   26.4710 N.pl3  33  ARG33      -0.0865
     41  CZ        34.1460   30.4480   25.6760 C.cat  33  ARG33       0.5346
     42  NH1       34.4060   30.2290   24.3930 N.pl3  33  ARG33       0.1354
     43  NH2       34.2580   31.6740   26.1710 N.pl3  33  ARG33       0.1354
     44  N         37.8790   25.7390   25.0380 N.am   34  ASN34      -0.1958
     45  CA        38.4150   25.5750   23.6920 C.3    34  ASN34       0.1819
     46  C         37.2850   25.9130   22.7250 C.2    34  ASN34       0.2622
     47  O         36.2160   25.2980   22.7590 O.2    34  ASN34      -0.2715
     48  CB        38.9010   24.1370   23.4890 C.3    34  ASN34       0.1195
     49  CG        39.5830   23.9350   22.1480 C.2    34  ASN34       0.2630
     50  OD1       38.9370   23.9580   21.1020 O.2    34  ASN34      -0.2716
     51  ND2       40.9000   23.7440   22.1740 N.am   34  ASN34      -0.0877
     52  N         37.5210   26.9050   21.8730 N.am   35  SER35      -0.1936
     53  CA        36.5080   27.3520   20.9270 C.3    35  SER35       0.2055
     54  C         35.9930   26.2710   19.9860 C.2    35  SER35       0.2642
     55  O         35.0200   26.4890   19.2640 O.2    35  SER35      -0.2714
     56  CB        37.0410   28.5380   20.1140 C.3    35  SER35       0.2130
     57  OG        38.2490   28.2070   19.4550 O.3    35  SER35      -0.2179
     58  N         36.6240   25.1010   20.0000 N.am   36  LYS36      -0.1977
     59  CA        36.2010   24.0210   19.1210 C.3    36  LYS36       0.1596
     60  C         35.7840   22.7370   19.8370 C.2    36  LYS36       0.2287
     61  O         34.8610   22.0540   19.3920 O.2    36  LYS36      -0.2864
     62  CB        37.3110   23.7210   18.1070 C.3    36  LYS36       0.0298
     63  CG        37.7110   24.9460   17.2860 C.3    36  LYS36       0.0038
     64  CD        38.8480   24.6630   16.3120 C.3    36  LYS36       0.0206
     65  CE        39.2310   25.9330   15.5570 C.3    36  LYS36       0.1093
     66  NZ        40.3420   25.7290   14.5830 N.3    36  LYS36      -0.1314
     67  N         34.5100   23.5890   26.7790 N.3    39  SER39      -0.1202
     68  CA        35.2800   23.9140   27.9810 C.3    39  SER39       0.2020
     69  C         35.9920   22.6820   28.5200 C.2    39  SER39       0.2618
     70  O         35.4870   21.5660   28.4060 O.2    39  SER39      -0.2717
     71  CB        34.3660   24.4970   29.0700 C.3    39  SER39       0.2103
     72  OG        33.4220   23.5440   29.5380 O.3    39  SER39      -0.2182
     73  N         37.1680   22.8830   29.1080 N.am   40  TRP40      -0.1975
     74  CA        37.9350   21.7720   29.6620 C.3    40  TRP40       0.1640
     75  C         37.1220   21.0340   30.7220 C.2    40  TRP40       0.2290
     76  O         37.0990   19.8010   30.7670 O.2    40  TRP40      -0.2864
     77  CB        39.2180   22.2740   30.3260 C.3    40  TRP40       0.0576
     78  CG        40.1630   23.0100   29.4310 C.ar   40  TRP40       0.0006
     79  CD1       40.1000   23.1280   28.0690 C.ar   40  TRP40       0.0946
     80  CD2       41.3500   23.6940   29.8400 C.ar   40  TRP40       0.0152
     81  NE1       41.1860   23.8430   27.6050 N.ar   40  TRP40      -0.2442
     82  CE2       41.9680   24.2010   28.6740 C.ar   40  TRP40       0.0810
     83  CE3       41.9580   23.9250   31.0840 C.ar   40  TRP40       0.0012
     84  CZ2       43.1640   24.9270   28.7130 C.ar   40  TRP40       0.0191
     85  CZ3       43.1460   24.6440   31.1260 C.ar   40  TRP40       0.0001
     86  CH2       43.7370   25.1370   29.9440 C.ar   40  TRP40       0.0015
     87  N         46.6550   25.8340   28.5220 N.3    75  SER75      -0.1202
     88  CA        46.2870   26.7800   27.4790 C.3    75  SER75       0.2020
     89  C         47.3880   27.0930   26.4760 C.2    75  SER75       0.2619
     90  O         48.5760   26.9880   26.7720 O.2    75  SER75      -0.2717
     91  CB        45.8030   28.0920   28.0980 C.3    75  SER75       0.2103
     92  OG        46.8870   28.8170   28.6570 O.3    75  SER75      -0.2182
     93  N         46.9600   27.4730   25.2790 N.am   76  PHE76      -0.1961
     94  CA        47.8620   27.8760   24.2090 C.3    76  PHE76       0.1771
     95  C         47.3030   29.2070   23.7280 C.2    76  PHE76       0.2620
     96  O         46.1210   29.3000   23.3940 O.2    76  PHE76      -0.2715
     97  CB        47.8410   26.8860   23.0450 C.3    76  PHE76       0.0574
     98  CG        48.7210   27.3000   21.8940 C.ar   76  PHE76      -0.0200
     99  CD1       50.0870   27.0460   21.9190 C.ar   76  PHE76      -0.0042
    100  CD2       48.1890   27.9900   20.8090 C.ar   76  PHE76      -0.0042
    101  CE1       50.9170   27.4760   20.8780 C.ar   76  PHE76      -0.0003
    102  CE2       49.0080   28.4260   19.7630 C.ar   76  PHE76      -0.0003
    103  CZ        50.3710   28.1690   19.8000 C.ar   76  PHE76      -0.0000
    104  N         48.1400   30.2360   23.7030 N.am   77  SER77      -0.1936
    105  CA        47.6970   31.5500   23.2620 C.3    77  SER77       0.2055
    106  C         48.8400   32.3250   22.6340 C.2    77  SER77       0.2643
    107  O         49.9930   32.1800   23.0340 O.2    77  SER77      -0.2714
    108  CB        47.1510   32.3500   24.4470 C.3    77  SER77       0.2130
    109  OG        46.8020   33.6670   24.0600 O.3    77  SER77      -0.2179
    110  N         48.5120   33.1490   21.6460 N.am   78  PHE78      -0.1973
    111  CA        49.5170   33.9740   20.9900 C.3    78  PHE78       0.1639
    112  C         49.8980   35.0910   21.9530 C.2    78  PHE78       0.2290
    113  O         50.9420   35.7290   21.8120 O.2    78  PHE78      -0.2864
    114  CB        48.9480   34.5430   19.6880 C.3    78  PHE78       0.0560
    115  CG        48.7620   33.5110   18.6110 C.ar   78  PHE78      -0.0200
    116  CD1       47.7590   33.6530   17.6580 C.ar   78  PHE78      -0.0042
    117  CD2       49.6010   32.4010   18.5430 C.ar   78  PHE78      -0.0042
    118  CE1       47.5920   32.7040   16.6520 C.ar   78  PHE78      -0.0003
    119  CE2       49.4450   31.4460   17.5420 C.ar   78  PHE78      -0.0003
    120  CZ        48.4370   31.5970   16.5940 C.ar   78  PHE78      -0.0000
    121  N         48.0700   34.8850   28.4780 N.3    82  PHE82      -0.1241
    122  CA        47.1210   33.7830   28.5880 C.3    82  PHE82       0.1605
    123  C         47.6570   32.4450   28.0910 C.2    82  PHE82       0.2264
    124  O         46.9020   31.4830   27.9400 O.2    82  PHE82      -0.2867
    125  CB        45.8410   34.1330   27.8290 C.3    82  PHE82       0.0534
    126  CG        45.1850   35.3960   28.3110 C.ar   82  PHE82      -0.0203
    127  CD1       45.6870   36.6420   27.9430 C.ar   82  PHE82      -0.0042
    128  CD2       44.0970   35.3400   29.1750 C.ar   82  PHE82      -0.0042
    129  CE1       45.1150   37.8170   28.4320 C.ar   82  PHE82      -0.0003
    130  CE2       43.5170   36.5080   29.6700 C.ar   82  PHE82      -0.0003
    131  CZ        44.0300   37.7490   29.2970 C.ar   82  PHE82      -0.0000
@<TRIPOS>BOND
     1    66    65    1
     2    65    64    1
     3    64    63    1
     4   120   118   ar
     5   120   119   ar
     6   118   116   ar
     7    63    62    1
     8   119   117   ar
     9   116   115   ar
    10    62    59    1
    11   117   115   ar
    12   115   114    1
    13    59    60    1
    14    59    58    1
    15    55    54    2
    16    61    60    2
    17    57    56    1
    18   114   111    1
    19   102   103   ar
    20   102   100   ar
    21   103   101   ar
    22    54    58   am
    23    54    53    1
    24    56    53    1
    25   100    98   ar
    26   101    99   ar
    27    53    52    1
    28   111   110    1
    29   111   112    1
    30    50    49    2
    31   110   106   am
    32   113   112    2
    33    52    46   am
    34    98    99   ar
    35    98    97    1
    36    49    51   am
    37    49    48    1
    38   106   107    2
    39   106   105    1
    40    46    47    2
    41    46    45    1
    42    97    94    1
    43   105   104    1
    44   105   108    1
    45    96    95    2
    46    48    45    1
    47    45    44    1
    48   104    95   am
    49    95    94    1
    50   109   108    1
    51    94    93    1
    52    42    41    1
    53    44    35   am
    54    36    35    2
    55    93    89   am
    56    35    34    1
    57    41    43    1
    58    41    40    2
    59    38    39    1
    60    38    37    1
    61    39    40    1
    62    89    90    2
    63    89    88    1
    64    67    68    1
    65    37    34    1
    66    34    33    1
    67    88    91    1
    68    88    87    1
    69    81    79   ar
    70    81    82   ar
    71   125   126    1
    72   125   122    1
    73   124   123    2
    74   127   126   ar
    75   127   129   ar
    76    68    69    1
    77    68    71    1
    78    33    21   am
    79    79    78   ar
    80   123   122    1
    81    91    92    1
    82   126   128   ar
    83    70    69    2
    84   129   131   ar
    85   121   122    1
    86    69    73   am
    87    82    84   ar
    88    82    80   ar
    89    84    86   ar
    90    31    29   ar
    91    31    32   ar
    92    71    72    1
    93    29    26   ar
    94    73    74    1
    95   128   130   ar
    96    21    22    2
    97    21    20    1
    98   131   130   ar
    99    78    80   ar
   100    78    77    1
   101    74    77    1
   102    74    75    1
   103    80    83   ar
   104    23    20    1
   105    23    24    1
   106    86    85   ar
   107    32    30   ar
   108    20    19    1
   109    26    24   ar
   110    26    28   ar
   111    24    25   ar
   112    75    76    2
   113    83    85   ar
   114    16    15    2
   115    30    28   ar
   116    28    27   ar
   117    19    15   am
   118    25    27   ar
   119    15    14    1
   120    10     8   ar
   121    10    11   ar
   122    12    11    1
   123     8     6   ar
   124    11     9   ar
   125    18    17    1
   126    14    17    1
   127    14    13    1
   128     6     5    1
   129     6     7   ar
   130     9     7   ar
   131    13     3   am
   132     5     2    1
   133     3     2    1
   134     3     4    2
   135     2     1    1
