@<TRIPOS>MOLECULE
tmp/2cnoB00.pdb
 124 126 0 0 0
SMALL
GASTEIGER

@<TRIPOS>ATOM
      1  N         38.9630   32.7700   42.0800 N.3    18  GLY18      -0.1225
      2  CA        39.8020   33.8340   41.5570 C.3    18  GLY18       0.1811
      3  C         40.5100   33.5940   40.2350 C.2    18  GLY18       0.2280
      4  O         41.1590   34.5100   39.7210 O.2    18  GLY18      -0.2866
      5  N         40.8780   32.2590   35.9970 N.3    20  TYR20      -0.1227
      6  CA        40.2170   32.2110   34.6940 C.3    20  TYR20       0.1736
      7  C         39.8430   30.7480   34.5000 C.2    20  TYR20       0.2596
      8  O         40.3980   29.8710   35.1590 O.2    20  TYR20      -0.2718
      9  CB        41.1810   32.5660   33.5530 C.3    20  TYR20       0.0548
     10  CG        41.4290   34.0350   33.2790 C.ar   20  TYR20      -0.0200
     11  CD1       42.7100   34.5700   33.3970 C.ar   20  TYR20      -0.0009
     12  CD2       40.4090   34.8700   32.8220 C.ar   20  TYR20      -0.0009
     13  CE1       42.9770   35.8960   33.0620 C.ar   20  TYR20       0.0417
     14  CE2       40.6690   36.2090   32.4830 C.ar   20  TYR20       0.0417
     15  CZ        41.9590   36.7070   32.6060 C.ar   20  TYR20       0.1957
     16  OH        42.2470   38.0120   32.2720 O.3    20  TYR20      -0.2866
     17  N         38.9160   30.4880   33.5870 N.am   21  SER21      -0.1938
     18  CA        38.5060   29.1280   33.2670 C.3    21  SER21       0.2055
     19  C         38.7670   29.0010   31.7730 C.2    21  SER21       0.2643
     20  O         38.3250   29.8400   30.9880 O.2    21  SER21      -0.2714
     21  CB        37.0220   28.9120   33.5500 C.3    21  SER21       0.2130
     22  OG        36.6660   27.5620   33.2860 O.3    21  SER21      -0.2179
     23  N         39.4780   27.9520   31.3830 N.am   22  TRP22      -0.1959
     24  CA        39.8320   27.7590   29.9860 C.3    22  TRP22       0.1771
     25  C         38.8450   27.0050   29.1080 C.2    22  TRP22       0.2620
     26  O         38.1800   26.0640   29.5410 O.2    22  TRP22      -0.2715
     27  CB        41.2060   27.0960   29.8970 C.3    22  TRP22       0.0590
     28  CG        42.3060   28.0160   30.2890 C.ar   22  TRP22       0.0006
     29  CD1       42.8670   28.1560   31.5230 C.ar   22  TRP22       0.0946
     30  CD2       42.9770   28.9450   29.4340 C.ar   22  TRP22       0.0152
     31  NE1       43.8530   29.1160   31.4900 N.ar   22  TRP22      -0.2442
     32  CE2       43.9380   29.6190   30.2160 C.ar   22  TRP22       0.0810
     33  CE3       42.8540   29.2800   28.0780 C.ar   22  TRP22       0.0012
     34  CZ2       44.7810   30.6010   29.6890 C.ar   22  TRP22       0.0191
     35  CZ3       43.6930   30.2600   27.5520 C.ar   22  TRP22       0.0001
     36  CH2       44.6410   30.9080   28.3580 C.ar   22  TRP22       0.0015
     37  N         38.7740   27.4300   27.8530 N.am   23  ARG23      -0.1963
     38  CA        37.8770   26.8290   26.8790 C.3    23  ARG23       0.1729
     39  C         38.5520   26.7350   25.5140 C.2    23  ARG23       0.2616
     40  O         39.2240   27.6680   25.0760 O.2    23  ARG23      -0.2715
     41  CB        36.5920   27.6650   26.7930 C.3    23  ARG23       0.0348
     42  CG        35.7310   27.4330   25.5630 C.3    23  ARG23       0.0492
     43  CD        34.3600   28.0950   25.7400 C.3    23  ARG23       0.2205
     44  NE        34.4750   29.4940   26.1510 N.pl3  23  ARG23      -0.0865
     45  CZ        34.8590   30.4840   25.3510 C.cat  23  ARG23       0.5346
     46  NH1       35.1610   30.2400   24.0830 N.pl3  23  ARG23       0.1354
     47  NH2       34.9590   31.7190   25.8270 N.pl3  23  ARG23       0.1354
     48  N         38.3900   25.5930   24.8560 N.am   24  ASN24      -0.1958
     49  CA        38.9610   25.4020   23.5320 C.3    24  ASN24       0.1819
     50  C         37.8320   25.6470   22.5360 C.2    24  ASN24       0.2622
     51  O         36.8120   24.9520   22.5400 O.2    24  ASN24      -0.2715
     52  CB        39.5260   23.9860   23.3900 C.3    24  ASN24       0.1195
     53  CG        40.2000   23.7620   22.0530 C.2    24  ASN24       0.2630
     54  OD1       39.5340   23.5840   21.0330 O.2    24  ASN24      -0.2716
     55  ND2       41.5290   23.7850   22.0460 N.am   24  ASN24      -0.0877
     56  N         38.0150   26.6580   21.6960 N.am   25  SER25      -0.1950
     57  CA        37.0090   27.0360   20.7150 C.3    25  SER25       0.1924
     58  C         36.4720   25.8850   19.8700 C.2    25  SER25       0.2314
     59  O         35.3770   25.9810   19.3220 O.2    25  SER25      -0.2863
     60  CB        37.5630   28.1350   19.8040 C.3    25  SER25       0.2116
     61  OG        38.8030   27.7530   19.2370 O.3    25  SER25      -0.2180
     62  N         35.0790   23.5210   26.6490 N.3    29  SER29      -0.1202
     63  CA        35.8640   23.8730   27.8240 C.3    29  SER29       0.2020
     64  C         36.5860   22.6480   28.3700 C.2    29  SER29       0.2618
     65  O         36.0900   21.5240   28.2750 O.2    29  SER29      -0.2717
     66  CB        34.9650   24.4720   28.9110 C.3    29  SER29       0.2103
     67  OG        34.0490   23.5140   29.4120 O.3    29  SER29      -0.2182
     68  N         37.7650   22.8690   28.9390 N.am   30  TRP30      -0.1975
     69  CA        38.5470   21.7740   29.5050 C.3    30  TRP30       0.1640
     70  C         37.7410   21.0060   30.5460 C.2    30  TRP30       0.2290
     71  O         37.7290   19.7730   30.5590 O.2    30  TRP30      -0.2864
     72  CB        39.8080   22.3110   30.1810 C.3    30  TRP30       0.0576
     73  CG        40.7410   23.0550   29.2720 C.ar   30  TRP30       0.0006
     74  CD1       40.6330   23.2090   27.9180 C.ar   30  TRP30       0.0946
     75  CD2       41.9570   23.7080   29.6560 C.ar   30  TRP30       0.0152
     76  NE1       41.7100   23.9180   27.4350 N.ar   30  TRP30      -0.2442
     77  CE2       42.5360   24.2380   28.4810 C.ar   30  TRP30       0.0810
     78  CE3       42.6100   23.8990   30.8820 C.ar   30  TRP30       0.0012
     79  CZ2       43.7470   24.9400   28.4950 C.ar   30  TRP30       0.0191
     80  CZ3       43.8140   24.5980   30.8950 C.ar   30  TRP30       0.0001
     81  CH2       44.3670   25.1130   29.7060 C.ar   30  TRP30       0.0015
     82  N         46.7620   22.3770   28.8880 N.3    64  GLU64      -0.1231
     83  CA        47.6750   23.5050   29.0470 C.3    64  GLU64       0.1699
     84  C         47.4000   24.4480   27.8820 C.2    64  GLU64       0.2593
     85  O         47.2530   24.0090   26.7460 O.2    64  GLU64      -0.2718
     86  CB        49.1360   23.0510   29.0250 C.3    64  GLU64       0.0402
     87  CG        50.1140   24.2100   29.1880 C.3    64  GLU64       0.1161
     88  CD        51.5610   23.7640   29.2830 C.2    64  GLU64       0.3649
     89  OE1       52.4220   24.4250   28.6610 O.co2  64  GLU64      -0.2457
     90  OE2       51.8390   22.7670   29.9850 O.co2  64  GLU64      -0.2457
     91  N         47.3230   25.7420   28.1630 N.am   65  SER65      -0.1938
     92  CA        47.0290   26.7090   27.1170 C.3    65  SER65       0.2055
     93  C         48.2210   26.9970   26.2130 C.2    65  SER65       0.2643
     94  O         49.3760   26.8360   26.6020 O.2    65  SER65      -0.2714
     95  CB        46.5490   28.0250   27.7330 C.3    65  SER65       0.2130
     96  OG        47.6330   28.7320   28.3150 O.3    65  SER65      -0.2179
     97  N         47.9150   27.4120   24.9920 N.am   66  PHE66      -0.1959
     98  CA        48.9270   27.7880   24.0140 C.3    66  PHE66       0.1771
     99  C         48.4360   29.1270   23.4880 C.2    66  PHE66       0.2620
    100  O         47.2890   29.2390   23.0480 O.2    66  PHE66      -0.2715
    101  CB        48.9880   26.7940   22.8550 C.3    66  PHE66       0.0574
    102  CG        49.9390   27.2070   21.7560 C.ar   66  PHE66      -0.0200
    103  CD1       51.2910   26.8880   21.8300 C.ar   66  PHE66      -0.0042
    104  CD2       49.4870   27.9540   20.6700 C.ar   66  PHE66      -0.0042
    105  CE1       52.1850   27.3080   20.8350 C.ar   66  PHE66      -0.0003
    106  CE2       50.3710   28.3800   19.6690 C.ar   66  PHE66      -0.0003
    107  CZ        51.7230   28.0550   19.7560 C.ar   66  PHE66      -0.0000
    108  N         49.2890   30.1400   23.5400 N.am   67  SER67      -0.1950
    109  CA        48.9040   31.4590   23.0650 C.3    67  SER67       0.1924
    110  C         50.0820   32.2380   22.5090 C.2    67  SER67       0.2314
    111  O         51.2200   32.0660   22.9460 O.2    67  SER67      -0.2863
    112  CB        48.2770   32.2620   24.2040 C.3    67  SER67       0.2116
    113  OG        47.8930   33.5510   23.7640 O.3    67  SER67      -0.2180
    114  N         49.0320   34.7770   28.3960 N.3    72  PHE72      -0.1241
    115  CA        48.0980   33.6600   28.4900 C.3    72  PHE72       0.1605
    116  C         48.6400   32.3240   27.9860 C.2    72  PHE72       0.2264
    117  O         47.8830   31.3640   27.8150 O.2    72  PHE72      -0.2867
    118  CB        46.8140   34.0070   27.7330 C.3    72  PHE72       0.0534
    119  CG        46.0720   35.1810   28.3110 C.ar   72  PHE72      -0.0203
    120  CD1       46.5130   36.4810   28.0870 C.ar   72  PHE72      -0.0042
    121  CD2       44.9550   34.9830   29.1130 C.ar   72  PHE72      -0.0042
    122  CE1       45.8490   37.5710   28.6560 C.ar   72  PHE72      -0.0003
    123  CE2       44.2860   36.0640   29.6860 C.ar   72  PHE72      -0.0003
    124  CZ        44.7360   37.3590   29.4570 C.ar   72  PHE72      -0.0000
@<TRIPOS>BOND
     1    61    60    1
     2    59    58    2
     3   106   107   ar
     4   106   104   ar
     5   107   105   ar
     6    60    57    1
     7    58    57    1
     8   104   102   ar
     9    57    56    1
    10   105   103   ar
    11    54    53    2
    12    56    50   am
    13   102   103   ar
    14   102   101    1
    15    55    53   am
    16    53    52    1
    17   110   111    2
    18   110   109    1
    19    50    51    2
    20    50    49    1
    21   101    98    1
    22   100    99    2
    23   109   108    1
    24   109   112    1
    25    52    49    1
    26    99   108   am
    27    99    98    1
    28    49    48    1
    29   113   112    1
    30    98    97    1
    31    46    45    1
    32    48    39   am
    33    97    93   am
    34    40    39    2
    35    45    47    1
    36    45    44    2
    37    39    38    1
    38    42    43    1
    39    42    41    1
    40    43    44    1
    41    93    94    2
    42    93    92    1
    43    62    63    1
    44    85    84    2
    45    41    38    1
    46    38    37    1
    47    92    95    1
    48    92    91    1
    49    76    74   ar
    50    76    77   ar
    51    35    33   ar
    52    35    36   ar
    53   118   119    1
    54   118   115    1
    55    95    96    1
    56   117   116    2
    57    63    64    1
    58    63    66    1
    59    37    25   am
    60    84    91   am
    61    84    83    1
    62    74    73   ar
    63   116   115    1
    64    33    30   ar
    65   120   119   ar
    66   120   122   ar
    67    65    64    2
    68   119   121   ar
    69    36    34   ar
    70    64    68   am
    71   114   115    1
    72    77    79   ar
    73    77    75   ar
    74    79    81   ar
    75   122   124   ar
    76    89    88   ar
    77    82    83    1
    78    66    67    1
    79    68    69    1
    80    86    83    1
    81    86    87    1
    82    25    26    2
    83    25    24    1
    84   121   123   ar
    85    87    88    1
    86    73    75   ar
    87    73    72    1
    88    88    90   ar
    89    30    32   ar
    90    30    28   ar
    91   124   123   ar
    92    69    72    1
    93    69    70    1
    94    75    78   ar
    95    34    32   ar
    96    81    80   ar
    97    27    24    1
    98    27    28    1
    99    24    23    1
   100    32    31   ar
   101    28    29   ar
   102    70    71    2
   103    78    80   ar
   104    20    19    2
   105    23    19   am
   106    31    29   ar
   107    19    18    1
   108    16    15    1
   109    14    15   ar
   110    14    12   ar
   111    15    13   ar
   112    12    10   ar
   113    13    11   ar
   114    18    21    1
   115    18    17    1
   116    10    11   ar
   117    10     9    1
   118    22    21    1
   119     9     6    1
   120    17     7   am
   121     7     6    1
   122     7     8    2
   123     6     5    1
   124     4     3    2
   125     3     2    1
   126     2     1    1
