@<TRIPOS>MOLECULE
tmp/2cnoA00.pdb
 118 114 0 0 0
SMALL
GASTEIGER

@<TRIPOS>ATOM
      1  N         32.5870   38.8790   24.5890 N.3    34  THR34      -0.1203
      2  CA        32.7870   38.1220   23.3640 C.3    34  THR34       0.1994
      3  C         31.9400   36.8580   23.3450 C.2    34  THR34       0.2619
      4  O         31.5030   36.3730   24.3900 O.2    34  THR34      -0.2717
      5  CB        34.2610   37.7180   23.2080 C.3    34  THR34       0.1784
      6  OG1       34.6120   36.7900   24.2430 O.3    34  THR34      -0.2211
      7  CG2       35.1570   38.9430   23.3170 C.3    34  THR34       0.0376
      8  N         31.7010   36.3340   22.1480 N.am   35  SER35      -0.1937
      9  CA        30.9270   35.1130   22.0080 C.3    35  SER35       0.2055
     10  C         31.8040   33.9700   22.5060 C.2    35  SER35       0.2643
     11  O         33.0210   33.9860   22.3180 O.2    35  SER35      -0.2714
     12  CB        30.5340   34.8980   20.5460 C.3    35  SER35       0.2130
     13  OG        31.6690   34.9500   19.7050 O.3    35  SER35      -0.2179
     14  N         31.1870   32.9860   23.1490 N.am   36  ARG36      -0.1963
     15  CA        31.9250   31.8530   23.6950 C.3    36  ARG36       0.1729
     16  C         31.9370   30.6640   22.7350 C.2    36  ARG36       0.2616
     17  O         31.1860   29.7010   22.9020 O.2    36  ARG36      -0.2715
     18  CB        31.3160   31.4650   25.0490 C.3    36  ARG36       0.0348
     19  CG        31.3050   32.6350   26.0380 C.3    36  ARG36       0.0492
     20  CD        30.6190   32.3130   27.3660 C.3    36  ARG36       0.2205
     21  NE        31.1750   31.1090   27.9700 N.pl3  36  ARG36      -0.0865
     22  CZ        30.6620   29.8940   27.8160 C.cat  36  ARG36       0.5346
     23  NH1       29.5640   29.7200   27.0860 N.pl3  36  ARG36       0.1354
     24  NH2       31.2680   28.8480   28.3570 N.pl3  36  ARG36       0.1354
     25  N         32.8030   30.7410   21.7270 N.am   37  SER37      -0.1950
     26  CA        32.9150   29.6860   20.7280 C.3    37  SER37       0.1924
     27  C         33.2540   28.3410   21.3600 C.2    37  SER37       0.2314
     28  O         34.0860   28.2550   22.2660 O.2    37  SER37      -0.2863
     29  CB        33.9790   30.0520   19.6870 C.3    37  SER37       0.2116
     30  OG        35.2530   30.2030   20.2870 O.3    37  SER37      -0.2180
     31  N         28.9190   30.0580   30.7990 N.3    92  SER92      -0.1202
     32  CA        28.9200   31.4730   30.4390 C.3    92  SER92       0.2020
     33  C         30.1700   32.1960   30.9230 C.2    92  SER92       0.2619
     34  O         31.0920   31.5810   31.4660 O.2    92  SER92      -0.2717
     35  CB        27.6800   32.1470   31.0490 C.3    92  SER92       0.2103
     36  OG        27.4910   33.4610   30.5550 O.3    92  SER92      -0.2182
     37  N         30.1980   33.5060   30.6940 N.am   93  HIS93      -0.1961
     38  CA        31.2910   34.3430   31.1600 C.3    93  HIS93       0.1787
     39  C         30.9610   34.5060   32.6350 C.2    93  HIS93       0.2621
     40  O         29.8260   34.2670   33.0420 O.2    93  HIS93      -0.2715
     41  CB        31.2510   35.7250   30.4970 C.3    93  HIS93       0.0785
     42  CG        31.8070   35.7570   29.1080 C.ar   93  HIS93       0.0821
     43  ND1       33.1410   35.5470   28.8380 N.ar   93  HIS93      -0.2267
     44  CD2       31.2160   36.0070   27.9150 C.ar   93  HIS93       0.1154
     45  CE1       33.3500   35.6690   27.5390 C.ar   93  HIS93       0.1986
     46  NE2       32.1980   35.9480   26.9560 N.ar   93  HIS93      -0.2212
     47  N         31.9350   34.9160   33.4370 N.am   94  GLY94      -0.1940
     48  CA        31.6600   35.1050   34.8470 C.3    94  GLY94       0.2014
     49  C         32.8270   35.6630   35.6280 C.2    94  GLY94       0.2639
     50  O         33.9120   35.8710   35.0860 O.2    94  GLY94      -0.2714
     51  N         32.5770   35.9200   36.9070 N.am   95  GLU95      -0.1963
     52  CA        33.5790   36.4270   37.8360 C.3    95  GLU95       0.1733
     53  C         33.3090   35.6680   39.1190 C.2    95  GLU95       0.2616
     54  O         32.3710   34.8790   39.1770 O.2    95  GLU95      -0.2715
     55  CB        33.3840   37.9150   38.1150 C.3    95  GLU95       0.0429
     56  CG        33.3380   38.7940   36.9030 C.3    95  GLU95       0.1163
     57  CD        33.6020   40.2330   37.2670 C.2    95  GLU95       0.3649
     58  OE1       32.9520   40.7320   38.2080 O.co2  95  GLU95      -0.2457
     59  OE2       34.4610   40.8630   36.6160 O.co2  95  GLU95      -0.2457
     60  N         34.0990   35.9190   40.1550 N.am   96  GLU96      -0.1977
     61  CA        33.8890   35.2200   41.4180 C.3    96  GLU96       0.1602
     62  C         32.4720   35.4600   41.9320 C.2    96  GLU96       0.2287
     63  O         32.0570   36.6060   42.1180 O.2    96  GLU96      -0.2864
     64  CB        34.9010   35.6860   42.4680 C.3    96  GLU96       0.0415
     65  CG        34.8130   34.9210   43.7840 C.3    96  GLU96       0.1163
     66  CD        35.1980   33.4560   43.6370 C.2    96  GLU96       0.3649
     67  OE1       36.3710   33.1730   43.3200 O.co2  96  GLU96      -0.2457
     68  OE2       34.3270   32.5870   43.8380 O.co2  96  GLU96      -0.2457
     69  N         27.1700   35.3180   34.0760 N.3   100  PHE100     -0.1241
     70  CA        26.6030   36.3310   33.2030 C.3   100  PHE100      0.1605
     71  C         25.4510   35.9330   32.3080 C.2   100  PHE100      0.2264
     72  O         25.5140   34.9320   31.5940 O.2   100  PHE100     -0.2867
     73  CB        27.7000   36.9250   32.3230 C.3   100  PHE100      0.0534
     74  CG        28.4710   38.0140   32.9840 C.ar  100  PHE100     -0.0203
     75  CD1       28.0540   39.3370   32.8750 C.ar  100  PHE100     -0.0042
     76  CD2       29.6050   37.7230   33.7320 C.ar  100  PHE100     -0.0042
     77  CE1       28.7540   40.3550   33.5060 C.ar  100  PHE100     -0.0003
     78  CE2       30.3130   38.7310   34.3670 C.ar  100  PHE100     -0.0003
     79  CZ        29.8870   40.0510   34.2510 C.ar  100  PHE100     -0.0000
     80  N         30.7360   26.3090   34.5660 N.3   133  GLN133     -0.1231
     81  CA        31.8190   26.5440   33.6240 C.3   133  GLN133      0.1698
     82  C         31.8130   28.0490   33.3600 C.2   133  GLN133      0.2592
     83  O         31.0270   28.5470   32.5510 O.2   133  GLN133     -0.2718
     84  CB        31.5760   25.7740   32.3200 C.3   133  GLN133      0.0381
     85  CG        32.5220   26.1510   31.1740 C.3   133  GLN133      0.0905
     86  CD        33.9800   26.1840   31.5940 C.2   133  GLN133      0.2608
     87  OE1       34.4900   25.2340   32.1910 O.2   133  GLN133     -0.2717
     88  NE2       34.6620   27.2790   31.2780 N.am  133  GLN133     -0.0878
     89  N         32.6820   28.7650   34.0680 N.am  134  ALA134     -0.1966
     90  CA        32.7890   30.2150   33.9420 C.3   134  ALA134      0.1728
     91  C         33.9590   30.7120   34.7820 C.2   134  ALA134      0.2616
     92  O         34.3430   30.0740   35.7650 O.2   134  ALA134     -0.2715
     93  CB        31.4970   30.8790   34.4150 C.3   134  ALA134      0.0334
     94  N         34.5230   31.8520   34.3950 N.am  135  CYS135     -0.1968
     95  CA        35.6400   32.4350   35.1320 C.3   135  CYS135      0.1712
     96  C         35.2070   32.7870   36.5470 C.2   135  CYS135      0.2296
     97  O         34.0280   33.0450   36.7930 O.2   135  CYS135     -0.2864
     98  CB        36.1440   33.7060   34.4330 C.3   135  CYS135      0.0983
     99  SG        36.9430   33.3810   32.8310 S.3   135  CYS135     -0.0798
    100  N         37.4880   34.8390   38.1510 N.3   137  GLY137     -0.1210
    101  CA        38.4670   35.8940   38.3230 C.3   137  GLY137      0.1956
    102  C         39.3920   35.9640   37.1220 C.2   137  GLY137      0.2612
    103  O         39.0950   35.3840   36.0770 O.2   137  GLY137     -0.2717
    104  N         40.5140   36.6640   37.2700 N.am  138  THR138     -0.1952
    105  CA        41.4780   36.8110   36.1820 C.3   138  THR138      0.1897
    106  C         42.8360   36.1850   36.4500 C.2   138  THR138      0.2313
    107  O         43.7510   36.3380   35.6450 O.2   138  THR138     -0.2863
    108  CB        41.7400   38.2920   35.8500 C.3   138  THR138      0.1794
    109  OG1       41.9690   39.0170   37.0620 O.3   138  THR138     -0.2208
    110  CG2       40.5740   38.8910   35.1100 C.3   138  THR138      0.0378
    111  N         45.8790   33.5690   36.6120 N.3   140  LEU140     -0.1245
    112  CA        46.3450   32.5190   35.7140 C.3   140  LEU140      0.1561
    113  C         47.3150   31.6160   36.4670 C.2   140  LEU140      0.2260
    114  O         48.1810   32.0940   37.2050 O.2   140  LEU140     -0.2867
    115  CB        47.0370   33.1380   34.4920 C.3   140  LEU140      0.0270
    116  CG        46.1100   33.8150   33.4740 C.3   140  LEU140      0.0019
    117  CD1       46.9180   34.6430   32.4900 C.3   140  LEU140      0.0001
    118  CD2       45.3020   32.7560   32.7430 C.3   140  LEU140      0.0001
@<TRIPOS>BOND
     1    29    30    1
     2    29    26    1
     3    13    12    1
     4    12     9    1
     5    26    27    1
     6    26    25    1
     7    27    28    2
     8    25    16   am
     9     9     8    1
    10     9    10    1
    11     8     3   am
    12    11    10    2
    13    10    14   am
    14    16    17    2
    15    16    15    1
    16    14    15    1
    17     5     7    1
    18     5     2    1
    19     5     6    1
    20     3     2    1
    21     3     4    2
    22     2     1    1
    23    15    18    1
    24    18    19    1
    25    19    20    1
    26    46    45   ar
    27    46    44   ar
    28    23    22    1
    29    20    21    1
    30    45    43   ar
    31    22    21    2
    32    22    24    1
    33    44    42   ar
    34    43    42   ar
    35    42    41    1
    36    32    31    1
    37    32    33    1
    38    32    35    1
    39    41    38    1
    40    36    35    1
    41    37    33   am
    42    37    38    1
    43    33    34    2
    44    38    39    1
    45    85    86    1
    46    85    84    1
    47    88    86   am
    48    72    71    2
    49    86    87    2
    50    71    70    1
    51    84    81    1
    52    73    74    1
    53    73    70    1
    54   117   116    1
    55    83    82    2
    56    39    40    2
    57    39    47   am
    58   118   116    1
    59    99    98    1
    60    75    74   ar
    61    75    77   ar
    62    74    76   ar
    63    70    69    1
    64    82    81    1
    65    82    89   am
    66    47    48    1
    67   116   115    1
    68    77    79   ar
    69    81    80    1
    70    76    78   ar
    71    90    89    1
    72    90    93    1
    73    90    91    1
    74    79    78   ar
    75    94    91   am
    76    94    95    1
    77    98    95    1
    78   115   112    1
    79    91    92    2
    80    48    49    1
    81    50    49    2
    82   110   108    1
    83    95    96    1
    84    49    51   am
    85   107   106    2
    86   112   113    1
    87   112   111    1
    88   108   105    1
    89   108   109    1
    90   103   102    2
    91   105   106    1
    92   105   104    1
    93   113   114    2
    94    96    97    2
    95    59    57   ar
    96    56    57    1
    97    56    55    1
    98    51    52    1
    99   102   104   am
   100   102   101    1
   101    57    58   ar
   102    52    55    1
   103    52    53    1
   104   100   101    1
   105    53    54    2
   106    53    60   am
   107    60    61    1
   108    61    62    1
   109    61    64    1
   110    62    63    2
   111    64    65    1
   112    67    66   ar
   113    66    65    1
   114    66    68   ar
