@<TRIPOS>MOLECULE
tmp/2cnqA00.pdb
 168 160 0 0 0
SMALL
GASTEIGER

@<TRIPOS>ATOM
      1  N         -7.7190   32.3560   20.7800 N.3    15  ALA15      -0.1245
      2  CA        -7.6630   31.5470   19.6100 C.3    15  ALA15       0.1562
      3  C         -9.0350   31.3920   19.0730 C.2    15  ALA15       0.2260
      4  O         -9.9930   31.4490   19.7910 O.2    15  ALA15      -0.2867
      5  CB        -7.1340   30.1830   19.9410 C.3    15  ALA15       0.0290
      6  N        -10.3160   28.0370   17.1910 N.3    17  GLY17      -0.1210
      7  CA       -10.1080   26.7420   16.6060 C.3    17  GLY17       0.1956
      8  C        -11.1200   26.5440   15.5200 C.2    17  GLY17       0.2612
      9  O        -11.7990   27.4630   15.0990 O.2    17  GLY17      -0.2717
     10  N        -11.2640   25.3250   15.0740 N.am   18  LYS18      -0.1965
     11  CA       -12.2450   25.0630   14.0690 C.3    18  LYS18       0.1728
     12  C        -13.6310   25.2900   14.5970 C.2    18  LYS18       0.2616
     13  O        -14.5130   25.6370   13.8470 O.2    18  LYS18      -0.2715
     14  CB       -12.0420   23.7080   13.4710 C.3    18  LYS18       0.0311
     15  CG       -10.7450   23.7010   12.6760 C.3    18  LYS18       0.0038
     16  CD       -10.4710   22.3790   12.0310 C.3    18  LYS18       0.0206
     17  CE       -10.2620   21.2430   13.0540 C.3    18  LYS18       0.1093
     18  NZ        -9.0690   21.5010   13.9240 N.3    18  LYS18      -0.1314
     19  N        -13.8110   25.0500   15.8650 N.am   19  VAL19      -0.1963
     20  CA       -15.1240   25.1340   16.4600 C.3    19  VAL19       0.1727
     21  C        -15.2180   26.1830   17.5120 C.2    19  VAL19       0.2616
     22  O        -16.2480   26.8080   17.6440 O.2    19  VAL19      -0.2715
     23  CB       -15.5030   23.7560   17.0510 C.3    19  VAL19       0.0290
     24  CG1      -16.7540   23.8450   17.8840 C.3    19  VAL19       0.0023
     25  CG2      -15.6750   22.7840   15.9230 C.3    19  VAL19       0.0023
     26  N        -14.1900   26.3700   18.3040 N.am   20  ARG20      -0.1977
     27  CA       -14.2890   27.2130   19.4370 C.3    20  ARG20       0.1597
     28  C        -13.6300   28.5310   19.2260 C.2    20  ARG20       0.2287
     29  O        -12.6400   28.6630   18.5350 O.2    20  ARG20      -0.2864
     30  CB       -13.7220   26.5400   20.6340 C.3    20  ARG20       0.0334
     31  CG       -14.6030   25.3410   20.9370 C.3    20  ARG20       0.0492
     32  CD       -13.9600   24.3190   21.7320 C.3    20  ARG20       0.2205
     33  NE       -14.9070   23.3150   22.0510 N.pl3  20  ARG20      -0.0865
     34  CZ       -15.2970   22.3550   21.2540 C.cat  20  ARG20       0.5346
     35  NH1      -14.6240   22.0320   20.1810 N.pl3  20  ARG20       0.1354
     36  NH2      -16.3750   21.6800   21.5860 N.pl3  20  ARG20       0.1354
     37  N        -12.0180   31.2600   21.7170 N.3    22  ILE22      -0.1245
     38  CA       -11.4780   31.1430   23.0480 C.3    22  ILE22       0.1561
     39  C        -10.9620   32.4810   23.4450 C.2    22  ILE22       0.2260
     40  O        -10.1040   33.0190   22.7610 O.2    22  ILE22      -0.2867
     41  CB       -10.4210   30.1070   23.0820 C.3    22  ILE22       0.0252
     42  CG1      -10.9800   28.7870   22.5500 C.3    22  ILE22       0.0019
     43  CG2       -9.8910   29.9420   24.5050 C.3    22  ILE22       0.0019
     44  CD1       -9.9890   27.7690   22.4040 C.3    22  ILE22       0.0001
     45  N        -10.1720   30.8840   30.7210 N.3    30  LEU30      -0.1245
     46  CA       -10.6080   31.0780   29.3690 C.3    30  LEU30       0.1561
     47  C        -12.0980   31.0020   29.3200 C.2    30  LEU30       0.2260
     48  O        -12.7330   30.2590   30.0290 O.2    30  LEU30      -0.2867
     49  CB       -10.0600   29.9990   28.4800 C.3    30  LEU30       0.0270
     50  CG        -8.5680   29.8970   28.4500 C.3    30  LEU30       0.0019
     51  CD1       -8.2060   28.6240   27.7220 C.3    30  LEU30       0.0001
     52  CD2       -7.9440   31.0910   27.8120 C.3    30  LEU30       0.0001
     53  N        -14.5250   29.6400   26.7930 N.3    32  PHE32      -0.1241
     54  CA       -14.3300   28.5990   25.8200 C.3    32  PHE32       0.1605
     55  C        -15.6590   28.4240   25.1040 C.2    32  PHE32       0.2264
     56  O        -16.5490   27.7860   25.6300 O.2    32  PHE32      -0.2867
     57  CB       -13.9420   27.3740   26.6480 C.3    32  PHE32       0.0534
     58  CG       -13.3980   26.2300   25.8790 C.ar   32  PHE32      -0.0203
     59  CD1      -14.1170   25.0660   25.7390 C.ar   32  PHE32      -0.0042
     60  CD2      -12.1520   26.2760   25.3840 C.ar   32  PHE32      -0.0042
     61  CE1      -13.5560   23.9780   25.1150 C.ar   32  PHE32      -0.0003
     62  CE2      -11.5780   25.1870   24.7670 C.ar   32  PHE32      -0.0003
     63  CZ       -12.3040   24.0490   24.6320 C.ar   32  PHE32      -0.0000
     64  N        -11.2120   20.7360   33.3820 N.3    74  HIS74      -0.1241
     65  CA       -10.8680   22.1290   33.2550 C.3    74  HIS74       0.1621
     66  C        -11.9520   23.0860   33.6190 C.2    74  HIS74       0.2264
     67  O        -11.7320   24.2750   33.5650 O.2    74  HIS74      -0.2867
     68  CB       -10.3670   22.4600   31.8680 C.3    74  HIS74       0.0745
     69  CG       -11.3310   22.3260   30.7750 C.ar   74  HIS74       0.0817
     70  ND1      -11.0260   22.8890   29.5690 N.ar   74  HIS74      -0.2268
     71  CD2      -12.5350   21.7530   30.6620 C.ar   74  HIS74       0.1154
     72  CE1      -12.0140   22.6470   28.7520 C.ar   74  HIS74       0.1986
     73  NE2      -12.9380   21.9540   29.3850 N.ar   74  HIS74      -0.2212
     74  N        -13.2340   27.9700   31.7360 N.3   108  VAL108     -0.1231
     75  CA       -12.3260   26.8920   31.9830 C.3   108  VAL108      0.1692
     76  C        -11.0240   27.4400   32.4260 C.2   108  VAL108      0.2592
     77  O        -10.6170   28.5350   32.1140 O.2   108  VAL108     -0.2718
     78  CB       -12.1410   26.0020   30.7490 C.3   108  VAL108      0.0266
     79  CG1      -13.4870   25.4780   30.2810 C.3   108  VAL108      0.0020
     80  CG2      -11.4450   26.6900   29.6520 C.3   108  VAL108      0.0020
     81  N        -10.3370   26.6250   33.1700 N.am  109  HIS109     -0.1962
     82  CA        -9.0120   26.9150   33.5430 C.3   109  HIS109      0.1787
     83  C         -8.1000   26.6500   32.3780 C.2   109  HIS109      0.2620
     84  O         -8.1740   25.6270   31.7420 O.2   109  HIS109     -0.2715
     85  CB        -8.6190   25.9680   34.6580 C.3   109  HIS109      0.0785
     86  CG        -9.3500   26.2060   35.9290 C.ar  109  HIS109      0.0821
     87  ND1       -9.0500   27.2610   36.7570 N.ar  109  HIS109     -0.2267
     88  CD2      -10.3570   25.5260   36.5260 C.ar  109  HIS109      0.1154
     89  CE1       -9.8540   27.2280   37.8040 C.ar  109  HIS109      0.1986
     90  NE2      -10.6400   26.1720   37.7030 N.ar  109  HIS109     -0.2212
     91  N         -7.2200   27.5770   32.1190 N.am  110  LYS110     -0.1963
     92  CA        -6.1840   27.3780   31.1490 C.3   110  LYS110      0.1731
     93  C         -5.2990   26.3030   31.6860 C.2   110  LYS110      0.2616
     94  O         -4.8230   26.3990   32.7880 O.2   110  LYS110     -0.2715
     95  CB        -5.5430   28.7430   30.9200 C.3   110  LYS110      0.0358
     96  CG        -4.5520   28.7850   29.8100 C.3   110  LYS110      0.0298
     97  CD        -3.8260   30.1460   29.7030 C.2   110  LYS110     -0.0067
     98  CE        -4.6790   31.4610   29.9320 C.2   110  LYS110      0.1012
     99  NZ        -3.9310   32.8580   30.0020 N.pl3 110  LYS110     -0.1270
    100  N         -5.0410   25.2850   30.9160 N.am  111  HIS111     -0.1973
    101  CA        -4.1510   24.2500   31.3530 C.3   111  HIS111      0.1656
    102  C         -3.0950   24.0540   30.3550 C.2   111  HIS111      0.2291
    103  O         -3.2910   24.2390   29.1720 O.2   111  HIS111     -0.2864
    104  CB        -4.8840   22.9420   31.5610 C.3   111  HIS111      0.0771
    105  CG        -5.5210   22.8650   32.8910 C.ar  111  HIS111      0.0820
    106  ND1       -4.7750   22.7360   34.0330 N.ar  111  HIS111     -0.2267
    107  CD2       -6.8090   22.9380   33.2810 C.ar  111  HIS111      0.1154
    108  CE1       -5.5760   22.7250   35.0730 C.ar  111  HIS111      0.1986
    109  NE2       -6.8130   22.8550   34.6460 N.ar  111  HIS111     -0.2212
    110  N         -1.4990   21.7340   28.1170 N.3   113  LEU113     -0.1245
    111  CA        -2.0670   20.6220   27.4340 C.3   113  LEU113      0.1561
    112  C         -1.0260   19.5910   27.1810 C.2   113  LEU113      0.2260
    113  O          0.1120   19.8930   26.9770 O.2   113  LEU113     -0.2867
    114  CB        -2.6780   21.0370   26.1030 C.3   113  LEU113      0.0270
    115  CG        -3.7250   22.1030   26.2430 C.3   113  LEU113      0.0019
    116  CD1       -4.2260   22.4690   24.8760 C.3   113  LEU113      0.0001
    117  CD2       -4.7710   21.6560   27.2470 C.3   113  LEU113      0.0001
    118  N         -1.0820   16.4930   17.5700 N.3   163  LYS163     -0.1245
    119  CA        -1.8610   17.6830   17.3410 C.3   163  LYS163      0.1561
    120  C         -1.1560   18.4520   16.2730 C.2   163  LYS163      0.2260
    121  O         -0.1110   19.0610   16.5330 O.2   163  LYS163     -0.2867
    122  CB        -1.9560   18.5020   18.6160 C.3   163  LYS163      0.0271
    123  CG        -2.7070   17.7670   19.6850 C.3   163  LYS163      0.0035
    124  CD        -2.6650   18.4500   21.0070 C.3   163  LYS163      0.0206
    125  CE        -3.4290   19.7010   21.0010 C.3   163  LYS163      0.1093
    126  NZ        -3.2900   20.3340   22.2870 N.3   163  LYS163     -0.1314
    127  N        -11.8920   10.9930   20.9080 N.3   213  LYS213     -0.1245
    128  CA       -10.7140   11.7650   21.1430 C.3   213  LYS213      0.1561
    129  C        -10.9020   12.5830   22.3560 C.2   213  LYS213      0.2260
    130  O        -11.7820   13.4220   22.4110 O.2   213  LYS213     -0.2867
    131  CB       -10.4370   12.6410   19.9450 C.3   213  LYS213      0.0271
    132  CG        -9.2060   13.5010   20.0770 C.3   213  LYS213      0.0035
    133  CD        -9.3910   14.8210   20.7600 C.3   213  LYS213      0.0206
    134  CE       -10.1830   15.7760   19.9390 C.3   213  LYS213      0.1093
    135  NZ       -10.4830   17.0410   20.6530 N.3   213  LYS213     -0.1314
    136  N         -8.8640   15.1750   25.0880 N.3   215  GLU215     -0.1245
    137  CA        -7.7250   15.9920   25.3150 C.3   215  GLU215      0.1567
    138  C         -7.4930   16.0840   26.7720 C.2   215  GLU215      0.2260
    139  O         -8.4090   16.2150   27.5570 O.2   215  GLU215     -0.2867
    140  CB        -7.8830   17.3730   24.7330 C.3   215  GLU215      0.0388
    141  CG        -8.0310   17.3300   23.2510 C.3   215  GLU215      0.1160
    142  CD        -7.9520   18.6540   22.5790 C.2   215  GLU215      0.3649
    143  OE1       -8.4350   18.7250   21.4330 O.co2 215  GLU215     -0.2457
    144  OE2       -7.4130   19.5950   23.1820 O.co2 215  GLU215     -0.2457
    145  N         -9.7090   18.0730   29.4960 N.3   228  VAL228     -0.1231
    146  CA        -9.9270   19.4030   28.9810 C.3   228  VAL228      0.1692
    147  C        -10.7520   19.3230   27.7170 C.2   228  VAL228      0.2592
    148  O        -11.3280   18.3070   27.3880 O.2   228  VAL228     -0.2718
    149  CB        -8.6090   20.1500   28.7610 C.3   228  VAL228      0.0266
    150  CG1       -7.8170   20.1720   30.0410 C.3   228  VAL228      0.0020
    151  CG2       -7.8070   19.5610   27.6550 C.3   228  VAL228      0.0020
    152  N        -10.8680   20.4330   27.0390 N.am  229  ASP229     -0.1960
    153  CA       -11.5030   20.4770   25.7560 C.3   229  ASP229      0.1840
    154  C        -12.9440   20.0240   25.8480 C.2   229  ASP229      0.2621
    155  O        -13.6400   20.4480   26.7470 O.2   229  ASP229     -0.2715
    156  CB       -10.6790   19.7390   24.7190 C.3   229  ASP229      0.1450
    157  CG       -11.0290   20.1140   23.3340 C.2   229  ASP229      0.3671
    158  OD1      -10.7230   21.2520   22.9400 O.co2 229  ASP229     -0.2456
    159  OD2      -11.5860   19.2470   22.6330 O.co2 229  ASP229     -0.2456
    160  N        -13.3710   19.2790   24.8660 N.am  230  GLU230     -0.1977
    161  CA       -14.6660   18.6930   24.8420 C.3   230  GLU230      0.1602
    162  C        -14.5420   17.2180   25.0860 C.2   230  GLU230      0.2287
    163  O        -13.5150   16.6200   24.8690 O.2   230  GLU230     -0.2864
    164  CB       -15.3680   18.9600   23.5280 C.3   230  GLU230      0.0415
    165  CG       -14.7950   18.1690   22.3870 C.3   230  GLU230      0.1163
    166  CD       -15.4480   18.4610   21.0850 C.2   230  GLU230      0.3649
    167  OE1      -14.7330   18.3430   20.0720 O.co2 230  GLU230     -0.2457
    168  OE2      -16.6380   18.7770   21.0580 O.co2 230  GLU230     -0.2457
@<TRIPOS>BOND
     1    16    15    1
     2    16    17    1
     3    15    14    1
     4    17    18    1
     5    14    11    1
     6    13    12    2
     7    11    12    1
     8    11    10    1
     9    12    19   am
    10    10     8   am
    11     9     8    2
    12     8     7    1
    13    19    20    1
    14    25    23    1
    15   120   121    2
    16   120   119    1
    17    20    23    1
    18    20    21    1
    19     7     6    1
    20    23    24    1
    21   119   118    1
    22   119   122    1
    23    21    22    2
    24    21    26   am
    25    26    27    1
    26    29    28    2
    27   122   123    1
    28     3     2    1
    29     3     4    2
    30    28    27    1
    31    27    30    1
    32     2     5    1
    33     2     1    1
    34   123   124    1
    35   134   135    1
    36   134   133    1
    37   131   132    1
    38   131   128    1
    39   167   166   ar
    40   132   133    1
    41    35    34    1
    42    30    31    1
    43   127   128    1
    44    31    32    1
    45   125   124    1
    46   125   126    1
    47   168   166   ar
    48   166   165    1
    49   128   129    1
    50    34    36    1
    51    34    33    2
    52   143   142   ar
    53    37    38    1
    54    32    33    1
    55   129   130    2
    56   165   164    1
    57    44    42    1
    58    42    41    1
    59   142   144   ar
    60   142   141    1
    61   159   157   ar
    62    40    39    2
    63   158   157   ar
    64    38    41    1
    65    38    39    1
    66    41    43    1
    67   141   140    1
    68   157   156    1
    69   164   161    1
    70    63    62   ar
    71    63    61   ar
    72   156   153    1
    73   140   137    1
    74    62    60   ar
    75   161   160    1
    76   161   162    1
    77   160   154   am
    78   163   162    2
    79   116   115    1
    80   136   137    1
    81    55    56    2
    82    55    54    1
    83    61    59   ar
    84   137   138    1
    85    60    58   ar
    86    59    58   ar
    87   153   154    1
    88   153   152    1
    89    54    57    1
    90    54    53    1
    91   154   155    2
    92    58    57    1
    93   114   115    1
    94   114   111    1
    95   115   117    1
    96   138   139    2
    97   113   112    2
    98   152   147   am
    99   112   111    1
   100   148   147    2
   101   111   110    1
   102   151   149    1
   103   147   146    1
   104    51    50    1
   105    52    50    1
   106    50    49    1
   107    49    46    1
   108    72    73   ar
   109    72    70   ar
   110   149   146    1
   111   149   150    1
   112   146   145    1
   113   103   102    2
   114    47    46    1
   115    47    48    2
   116    46    45    1
   117    73    71   ar
   118    70    69   ar
   119    80    78    1
   120    97    96    1
   121    97    98    2
   122    96    95    1
   123    98    99    1
   124    79    78    1
   125   102   101    1
   126    71    69   ar
   127    78    75    1
   128    69    68    1
   129   100   101    1
   130   100    93   am
   131    95    92    1
   132    92    93    1
   133    92    91    1
   134   101   104    1
   135   104   105    1
   136    93    94    2
   137    74    75    1
   138    84    83    2
   139    68    65    1
   140    75    76    1
   141    77    76    2
   142    91    83   am
   143    83    82    1
   144    76    81   am
   145   105   107   ar
   146   105   106   ar
   147    81    82    1
   148    65    64    1
   149    65    66    1
   150   107   109   ar
   151    82    85    1
   152    67    66    2
   153   106   108   ar
   154   109   108   ar
   155    85    86    1
   156    86    88   ar
   157    86    87   ar
   158    88    90   ar
   159    87    89   ar
   160    90    89   ar
