@<TRIPOS>MOLECULE
tmp/2cnqA04.pdb
 109 102 0 0 0
SMALL
GASTEIGER

@<TRIPOS>ATOM
      1  N        -11.2640   25.3250   15.0740 N.3    18  LYS18      -0.1245
      2  CA       -12.2450   25.0630   14.0690 C.3    18  LYS18       0.1561
      3  C        -13.6310   25.2900   14.5970 C.2    18  LYS18       0.2260
      4  O        -14.5130   25.6370   13.8470 O.2    18  LYS18      -0.2867
      5  CB       -12.0420   23.7080   13.4710 C.3    18  LYS18       0.0271
      6  CG       -10.7450   23.7010   12.6760 C.3    18  LYS18       0.0035
      7  CD       -10.4710   22.3790   12.0310 C.3    18  LYS18       0.0206
      8  CE       -10.2620   21.2430   13.0540 C.3    18  LYS18       0.1093
      9  NZ        -9.0690   21.5010   13.9240 N.3    18  LYS18      -0.1314
     10  N        -16.4550   21.2950   11.0090 N.3    39  SER39      -0.1202
     11  CA       -15.3390   21.0450   10.1460 C.3    39  SER39       0.2020
     12  C        -15.2670   19.5920    9.8660 C.2    39  SER39       0.2619
     13  O        -15.7770   18.7710   10.5840 O.2    39  SER39      -0.2717
     14  CB       -14.0870   21.4910   10.8450 C.3    39  SER39       0.2103
     15  OG       -13.8830   20.7710   12.0350 O.3    39  SER39      -0.2182
     16  N        -14.6040   19.2600    8.7880 N.am   40  ALA40      -0.1965
     17  CA       -14.3360   17.8720    8.4920 C.3    40  ALA40       0.1728
     18  C        -13.0710   17.8760    7.7180 C.2    40  ALA40       0.2616
     19  O        -12.8320   18.7600    6.9130 O.2    40  ALA40      -0.2715
     20  CB       -15.4340   17.2780    7.7030 C.3    40  ALA40       0.0334
     21  N        -12.2470   16.8880    7.9620 N.am   41  TYR41      -0.1960
     22  CA       -10.9700   16.8110    7.3100 C.3    41  TYR41       0.1771
     23  C        -10.2170   18.1100    7.4670 C.2    41  TYR41       0.2619
     24  O         -9.5120   18.5370    6.5670 O.2    41  TYR41      -0.2715
     25  CB       -11.1110   16.3930    5.8670 C.3    41  TYR41       0.0574
     26  CG       -11.9010   15.1370    5.7200 C.ar   41  TYR41      -0.0198
     27  CD1      -11.4040   13.9400    6.1090 C.ar   41  TYR41      -0.0009
     28  CD2      -13.1570   15.1710    5.1830 C.ar   41  TYR41      -0.0009
     29  CE1      -12.1320   12.7930    5.9430 C.ar   41  TYR41       0.0417
     30  CE2      -13.8930   14.0660    5.0060 C.ar   41  TYR41       0.0417
     31  CZ       -13.3920   12.8740    5.3900 C.ar   41  TYR41       0.1957
     32  OH       -14.1440   11.7540    5.1820 O.3    41  TYR41      -0.2866
     33  N        -10.3350   18.7130    8.6360 N.am   42  ASP42      -0.1971
     34  CA        -9.5920   19.9080    8.9890 C.3    42  ASP42       0.1709
     35  C         -9.9740   21.1190    8.2040 C.2    42  ASP42       0.2293
     36  O         -9.2450   22.0780    8.2110 O.2    42  ASP42      -0.2864
     37  CB        -8.1020   19.6890    8.9790 C.3    42  ASP42       0.1436
     38  CG        -7.6750   18.8110   10.0800 C.2    42  ASP42       0.3671
     39  OD1       -6.9080   17.8960    9.8130 O.co2  42  ASP42      -0.2456
     40  OD2       -8.1070   19.0160   11.2250 O.co2  42  ASP42      -0.2456
     41  N         -3.6540   14.0890   20.6790 N.3   117  GLU117     -0.1245
     42  CA        -5.0460   13.7360   20.5900 C.3   117  GLU117      0.1567
     43  C         -5.1420   12.3850   21.2380 C.2   117  GLU117      0.2260
     44  O         -4.5670   11.4150   20.7810 O.2   117  GLU117     -0.2867
     45  CB        -5.5140   13.6410   19.1760 C.3   117  GLU117      0.0388
     46  CG        -5.2590   14.8280   18.3440 C.3   117  GLU117      0.1160
     47  CD        -5.9670   16.0740   18.7780 C.2   117  GLU117      0.3649
     48  OE1       -5.8220   17.0600   18.0260 O.co2 117  GLU117     -0.2457
     49  OE2       -6.6460   16.1490   19.7970 O.co2 117  GLU117     -0.2457
     50  N         -2.7750   10.5080   18.4460 N.3   161  SER161     -0.1217
     51  CA        -2.3240   11.2310   17.3090 C.3   161  SER161      0.1889
     52  C         -1.6600   12.4880   17.7720 C.2   161  SER161      0.2288
     53  O         -1.8700   12.9640   18.8650 O.2   161  SER161     -0.2866
     54  CB        -3.4700   11.4820   16.3650 C.3   161  SER161      0.2089
     55  OG        -4.1090   12.6510   16.6990 O.3   161  SER161     -0.2183
     56  N         -2.5670   17.8400    9.0420 N.3   166  HIS166     -0.1226
     57  CA        -3.5110   16.9640    9.6990 C.3   166  HIS166      0.1752
     58  C         -2.8080   16.2730   10.8170 C.2   166  HIS166      0.2596
     59  O         -1.6050   16.0780   10.7700 O.2   166  HIS166     -0.2718
     60  CB        -4.0040   15.9100    8.7400 C.3   166  HIS166      0.0759
     61  CG        -4.6260   16.4730    7.5290 C.ar  166  HIS166      0.0818
     62  ND1       -5.7310   17.2870    7.5950 N.ar  166  HIS166     -0.2268
     63  CD2       -4.3280   16.3260    6.2210 C.ar  166  HIS166      0.1154
     64  CE1       -6.0790   17.6330    6.3710 C.ar  166  HIS166      0.1986
     65  NE2       -5.2500   17.0590    5.5190 N.ar  166  HIS166     -0.2212
     66  N         -3.5520   15.8870   11.8290 N.am  167  ASP167     -0.1974
     67  CA        -2.9860   15.1310   12.8920 C.3   167  ASP167      0.1709
     68  C         -2.4030   13.8580   12.3190 C.2   167  ASP167      0.2293
     69  O         -2.9220   13.2820   11.3750 O.2   167  ASP167     -0.2864
     70  CB        -4.0400   14.7520   13.8890 C.3   167  ASP167      0.1436
     71  CG        -4.6640   15.9200   14.5690 C.2   167  ASP167      0.3671
     72  OD1       -4.1330   17.0310   14.5430 O.co2 167  ASP167     -0.2456
     73  OD2       -5.7030   15.6930   15.1750 O.co2 167  ASP167     -0.2456
     74  N        -18.5790   15.5240   17.6850 N.3   235  ASP235     -0.1239
     75  CA       -17.3880   15.9550   16.9840 C.3   235  ASP235      0.1674
     76  C        -16.2100   15.1100   17.3960 C.2   235  ASP235      0.2266
     77  O        -15.3830   14.7820   16.5770 O.2   235  ASP235     -0.2867
     78  CB       -17.0470   17.4060   17.3000 C.3   235  ASP235      0.1410
     79  CG       -17.7170   18.3980   16.4480 C.2   235  ASP235      0.3668
     80  OD1      -17.4400   19.5900   16.6460 O.co2 235  ASP235     -0.2456
     81  OD2      -18.4390   18.0500   15.5260 O.co2 235  ASP235     -0.2456
     82  N        -20.0230   13.1860   13.5150 N.3   256  LYS256     -0.1245
     83  CA       -19.5080   13.9040   12.3930 C.3   256  LYS256      0.1561
     84  C        -19.2270   13.0190   11.2270 C.2   256  LYS256      0.2260
     85  O        -19.0420   13.5270   10.1400 O.2   256  LYS256     -0.2867
     86  CB       -18.2270   14.6110   12.7710 C.3   256  LYS256      0.0271
     87  CG       -17.8620   15.6820   11.7560 C.3   256  LYS256      0.0035
     88  CD       -16.4390   16.1320   11.8570 C.3   256  LYS256      0.0206
     89  CE       -16.1360   16.7930   13.1530 C.3   256  LYS256      0.1093
     90  NZ       -14.9440   17.6810   13.0150 N.3   256  LYS256     -0.1314
     91  N        -18.4330   13.8300    7.2680 N.3   260  ARG260     -0.1245
     92  CA       -17.2110   13.4180    6.6180 C.3   260  ARG260      0.1563
     93  C        -17.5180   12.5730    5.4220 C.2   260  ARG260      0.2260
     94  O        -16.9730   12.7680    4.3430 O.2   260  ARG260     -0.2867
     95  CB       -16.3730   12.6300    7.5760 C.3   260  ARG260      0.0307
     96  CG       -15.8360   13.3910    8.7330 C.3   260  ARG260      0.0489
     97  CD       -15.0620   12.4880    9.5890 C.3   260  ARG260      0.2205
     98  NE       -14.5500   13.1530   10.7730 N.pl3 260  ARG260     -0.0865
     99  CZ       -14.7580   12.7490   12.0070 C.cat 260  ARG260      0.5346
    100  NH1      -15.4510   11.6660   12.2720 N.pl3 260  ARG260      0.1354
    101  NH2      -14.2750   13.4750   12.9820 N.pl3 260  ARG260      0.1354
    102  N        -14.4610   16.5990    0.2730 N.3   269  ASN269     -0.1240
    103  CA       -13.5500   16.5530    1.3830 C.3   269  ASN269      0.1653
    104  C        -12.3760   17.4220    1.0680 C.2   269  ASN269      0.2266
    105  O        -11.8440   17.4190   -0.0320 O.2   269  ASN269     -0.2867
    106  CB       -13.1180   15.1200    1.6320 C.3   269  ASN269      0.1155
    107  CG       -12.7530   14.3850    0.3640 C.2   269  ASN269      0.2627
    108  OD1      -13.5520   14.2960   -0.5670 O.2   269  ASN269     -0.2716
    109  ND2      -11.5410   13.8470    0.3190 N.am  269  ASN269     -0.0877
@<TRIPOS>BOND
     1   108   107    2
     2   105   104    2
     3   102   103    1
     4   109   107   am
     5   107   106    1
     6   104   103    1
     7   103   106    1
     8    94    93    2
     9    30    28   ar
    10    30    31   ar
    11    32    31    1
    12    28    26   ar
    13    31    29   ar
    14    93    92    1
    15    65    63   ar
    16    65    64   ar
    17    26    25    1
    18    26    27   ar
    19    25    22    1
    20    29    27   ar
    21    63    61   ar
    22    64    62   ar
    23    24    23    2
    24    92    91    1
    25    92    95    1
    26    19    18    2
    27    22    23    1
    28    22    21    1
    29    23    33   am
    30    61    62   ar
    31    61    60    1
    32    95    96    1
    33    20    17    1
    34    18    21   am
    35    18    17    1
    36    35    36    2
    37    35    34    1
    38    17    16    1
    39    33    34    1
    40    96    97    1
    41    60    57    1
    42    16    12   am
    43    37    34    1
    44    37    38    1
    45    56    57    1
    46    97    98    1
    47    57    58    1
    48    39    38   ar
    49    12    11    1
    50    12    13    2
    51    38    40   ar
    52    85    84    2
    53    11    14    1
    54    11    10    1
    55    59    58    2
    56    98    99    2
    57    58    66   am
    58    14    15    1
    59    84    83    1
    60    69    68    2
    61    87    88    1
    62    87    86    1
    63    66    67    1
    64    88    89    1
    65    99   100    1
    66    99   101    1
    67     7     6    1
    68     7     8    1
    69    68    67    1
    70    83    86    1
    71    83    82    1
    72     6     5    1
    73    67    70    1
    74    90    89    1
    75     8     9    1
    76     5     2    1
    77     4     3    2
    78    70    71    1
    79     2     3    1
    80     2     1    1
    81    72    71   ar
    82    71    73   ar
    83    81    79   ar
    84    54    55    1
    85    54    51    1
    86    79    80   ar
    87    79    78    1
    88    77    76    2
    89    75    78    1
    90    75    76    1
    91    75    74    1
    92    51    52    1
    93    51    50    1
    94    52    53    2
    95    48    47   ar
    96    46    47    1
    97    46    45    1
    98    47    49   ar
    99    45    42    1
   100    42    41    1
   101    42    43    1
   102    44    43    2
