@<TRIPOS>MOLECULE
tmp/2cnqA01.pdb
 157 143 0 0 0
SMALL
GASTEIGER

@<TRIPOS>ATOM
      1  N        -11.2640   25.3250   15.0740 N.3    18  LYS18      -0.1245
      2  CA       -12.2450   25.0630   14.0690 C.3    18  LYS18       0.1561
      3  C        -13.6310   25.2900   14.5970 C.2    18  LYS18       0.2260
      4  O        -14.5130   25.6370   13.8470 O.2    18  LYS18      -0.2867
      5  CB       -12.0420   23.7080   13.4710 C.3    18  LYS18       0.0271
      6  CG       -10.7450   23.7010   12.6760 C.3    18  LYS18       0.0035
      7  CD       -10.4710   22.3790   12.0310 C.3    18  LYS18       0.0206
      8  CE       -10.2620   21.2430   13.0540 C.3    18  LYS18       0.1093
      9  NZ        -9.0690   21.5010   13.9240 N.3    18  LYS18      -0.1314
     10  N        -10.3350   18.7130    8.6360 N.3    42  ASP42      -0.1239
     11  CA        -9.5920   19.9080    8.9890 C.3    42  ASP42       0.1674
     12  C         -9.9740   21.1190    8.2040 C.2    42  ASP42       0.2266
     13  O         -9.2450   22.0780    8.2110 O.2    42  ASP42      -0.2867
     14  CB        -8.1020   19.6890    8.9790 C.3    42  ASP42       0.1410
     15  CG        -7.6750   18.8110   10.0800 C.2    42  ASP42       0.3668
     16  OD1       -6.9080   17.8960    9.8130 O.co2  42  ASP42      -0.2456
     17  OD2       -8.1070   19.0160   11.2250 O.co2  42  ASP42      -0.2456
     18  N         -3.6540   14.0890   20.6790 N.3   117  GLU117     -0.1245
     19  CA        -5.0460   13.7360   20.5900 C.3   117  GLU117      0.1567
     20  C         -5.1420   12.3850   21.2380 C.2   117  GLU117      0.2260
     21  O         -4.5670   11.4150   20.7810 O.2   117  GLU117     -0.2867
     22  CB        -5.5140   13.6410   19.1760 C.3   117  GLU117      0.0388
     23  CG        -5.2590   14.8280   18.3440 C.3   117  GLU117      0.1160
     24  CD        -5.9670   16.0740   18.7780 C.2   117  GLU117      0.3649
     25  OE1       -5.8220   17.0600   18.0260 O.co2 117  GLU117     -0.2457
     26  OE2       -6.6460   16.1490   19.7970 O.co2 117  GLU117     -0.2457
     27  N         -6.8190    9.6100   21.6410 N.3   119  ILE119     -0.1245
     28  CA        -7.8500    8.8260   21.0330 C.3   119  ILE119      0.1561
     29  C         -7.8790    7.4800   21.6720 C.2   119  ILE119      0.2260
     30  O         -6.8590    6.8480   21.8800 O.2   119  ILE119     -0.2867
     31  CB        -7.6210    8.7120   19.5570 C.3   119  ILE119      0.0252
     32  CG1       -7.7040   10.0750   18.9180 C.3   119  ILE119      0.0019
     33  CG2       -8.5670    7.7450   18.9110 C.3   119  ILE119      0.0019
     34  CD1       -7.0540   10.1310   17.5780 C.3   119  ILE119      0.0001
     35  N         -9.9430    3.8670   21.0240 N.3   121  ARG121     -0.1245
     36  CA       -10.7760    3.1210   20.1230 C.3   121  ARG121      0.1563
     37  C        -11.2670    1.8840   20.8030 C.2   121  ARG121      0.2260
     38  O        -10.4980    1.0540   21.2160 O.2   121  ARG121     -0.2867
     39  CB       -10.0340    2.7380   18.8910 C.3   121  ARG121      0.0307
     40  CG        -9.3990    3.9080   18.2070 C.3   121  ARG121      0.0489
     41  CD        -8.6420    3.4540   16.9990 C.3   121  ARG121      0.2205
     42  NE        -7.8650    4.5320   16.4530 N.pl3 121  ARG121     -0.0865
     43  CZ        -8.3000    5.3850   15.5710 C.cat 121  ARG121      0.5346
     44  NH1       -9.4510    5.2430   14.9810 N.pl3 121  ARG121      0.1354
     45  NH2       -7.5330    6.4020   15.2650 N.pl3 121  ARG121      0.1354
     46  N         -9.5270    5.5250   10.7550 N.3   127  SER127     -0.1217
     47  CA        -8.1560    5.3850   10.3480 C.3   127  SER127      0.1889
     48  C         -7.5610    4.1070   10.8550 C.2   127  SER127      0.2288
     49  O         -6.6410    3.5800   10.2630 O.2   127  SER127     -0.2866
     50  CB        -7.3690    6.5910   10.7870 C.3   127  SER127      0.2089
     51  OG        -7.1860    6.6310   12.1560 O.3   127  SER127     -0.2183
     52  N         -2.7750   10.5080   18.4460 N.3   161  SER161     -0.1217
     53  CA        -2.3240   11.2310   17.3090 C.3   161  SER161      0.1889
     54  C         -1.6600   12.4880   17.7720 C.2   161  SER161      0.2288
     55  O         -1.8700   12.9640   18.8650 O.2   161  SER161     -0.2866
     56  CB        -3.4700   11.4820   16.3650 C.3   161  SER161      0.2089
     57  OG        -4.1090   12.6510   16.6990 O.3   161  SER161     -0.2183
     58  N         -3.5520   15.8870   11.8290 N.3   167  ASP167     -0.1239
     59  CA        -2.9860   15.1310   12.8920 C.3   167  ASP167      0.1674
     60  C         -2.4030   13.8580   12.3190 C.2   167  ASP167      0.2266
     61  O         -2.9220   13.2820   11.3750 O.2   167  ASP167     -0.2867
     62  CB        -4.0400   14.7520   13.8890 C.3   167  ASP167      0.1410
     63  CG        -4.6640   15.9200   14.5690 C.2   167  ASP167      0.3668
     64  OD1       -4.1330   17.0310   14.5430 O.co2 167  ASP167     -0.2456
     65  OD2       -5.7030   15.6930   15.1750 O.co2 167  ASP167     -0.2456
     66  N         -1.3910    9.9420   13.1380 N.3   169  ASN169     -0.1240
     67  CA        -1.4980    8.8440   14.0390 C.3   169  ASN169      0.1653
     68  C         -0.1360    8.3760   14.4160 C.2   169  ASN169      0.2266
     69  O          0.6950    8.1480   13.5610 O.2   169  ASN169     -0.2867
     70  CB        -2.2310    7.6950   13.4040 C.3   169  ASN169      0.1155
     71  CG        -3.6730    7.9340   13.2230 C.2   169  ASN169      0.2627
     72  OD1       -4.3190    7.1990   12.4680 O.2   169  ASN169     -0.2716
     73  ND2       -4.2080    8.8790   13.8880 N.am  169  ASN169     -0.0877
     74  N        -15.2230    5.1280   19.1340 N.3   211  ASP211     -0.1225
     75  CA       -13.9600    5.7130   19.4290 C.3   211  ASP211      0.1805
     76  C        -14.2120    7.1360   19.8610 C.2   211  ASP211      0.2598
     77  O        -15.3020    7.6640   19.7420 O.2   211  ASP211     -0.2718
     78  CB       -13.0150    5.5850   18.2430 C.3   211  ASP211      0.1424
     79  CG       -13.5250    6.1700   16.9810 C.2   211  ASP211      0.3668
     80  OD1      -13.0740    5.6780   15.9410 O.co2 211  ASP211     -0.2456
     81  OD2      -14.2950    7.1340   17.0260 O.co2 211  ASP211     -0.2456
     82  N        -13.1790    7.7470   20.3860 N.am  212  THR212     -0.1939
     83  CA       -13.3030    9.0970   20.8290 C.3   212  THR212      0.2028
     84  C        -11.9330    9.6840   20.9740 C.2   212  THR212      0.2642
     85  O        -10.9740    8.9820   21.1670 O.2   212  THR212     -0.2714
     86  CB       -14.0320    9.1580   22.1720 C.3   212  THR212      0.1808
     87  OG1      -14.4730   10.4770   22.4120 O.3   212  THR212     -0.2208
     88  CG2      -13.2050    8.7260   23.3220 C.3   212  THR212      0.0379
     89  N        -11.8920   10.9930   20.9080 N.am  213  LYS213     -0.1977
     90  CA       -10.7140   11.7650   21.1430 C.3   213  LYS213      0.1596
     91  C        -10.9020   12.5830   22.3560 C.2   213  LYS213      0.2287
     92  O        -11.7820   13.4220   22.4110 O.2   213  LYS213     -0.2864
     93  CB       -10.4370   12.6410   19.9450 C.3   213  LYS213      0.0298
     94  CG        -9.2060   13.5010   20.0770 C.3   213  LYS213      0.0038
     95  CD        -9.3910   14.8210   20.7600 C.3   213  LYS213      0.0206
     96  CE       -10.1830   15.7760   19.9390 C.3   213  LYS213      0.1093
     97  NZ       -10.4830   17.0410   20.6530 N.3   213  LYS213     -0.1314
     98  N        -13.3710   19.2790   24.8660 N.3   230  GLU230     -0.1245
     99  CA       -14.6660   18.6930   24.8420 C.3   230  GLU230      0.1567
    100  C        -14.5420   17.2180   25.0860 C.2   230  GLU230      0.2260
    101  O        -13.5150   16.6200   24.8690 O.2   230  GLU230     -0.2867
    102  CB       -15.3680   18.9600   23.5280 C.3   230  GLU230      0.0388
    103  CG       -14.7950   18.1690   22.3870 C.3   230  GLU230      0.1160
    104  CD       -15.4480   18.4610   21.0850 C.2   230  GLU230      0.3649
    105  OE1      -14.7330   18.3430   20.0720 O.co2 230  GLU230     -0.2457
    106  OE2      -16.6380   18.7770   21.0580 O.co2 230  GLU230     -0.2457
    107  N        -18.5790   15.5240   17.6850 N.3   235  ASP235     -0.1225
    108  CA       -17.3880   15.9550   16.9840 C.3   235  ASP235      0.1805
    109  C        -16.2100   15.1100   17.3960 C.2   235  ASP235      0.2598
    110  O        -15.3830   14.7820   16.5770 O.2   235  ASP235     -0.2718
    111  CB       -17.0470   17.4060   17.3000 C.3   235  ASP235      0.1424
    112  CG       -17.7170   18.3980   16.4480 C.2   235  ASP235      0.3668
    113  OD1      -17.4400   19.5900   16.6460 O.co2 235  ASP235     -0.2456
    114  OD2      -18.4390   18.0500   15.5260 O.co2 235  ASP235     -0.2456
    115  N        -16.0970   14.7670   18.6550 N.am  236  SER236     -0.1938
    116  CA       -14.9230   14.1190   19.1610 C.3   236  SER236      0.2055
    117  C        -15.0040   12.6150   19.1290 C.2   236  SER236      0.2644
    118  O        -14.0490   11.9730   19.5050 O.2   236  SER236     -0.2714
    119  CB       -14.6400   14.5620   20.5590 C.3   236  SER236      0.2130
    120  OG       -15.5510   14.0330   21.4630 O.3   236  SER236     -0.2179
    121  N        -16.1100   12.0620   18.6980 N.am  237  SER237     -0.1935
    122  CA       -16.3800   10.6550   18.8530 C.3   237  SER237      0.2055
    123  C        -17.1440   10.1350   17.7200 C.2   237  SER237      0.2642
    124  O        -17.7710   10.8820   16.9910 O.2   237  SER237     -0.2714
    125  CB       -17.2490   10.4520   20.0880 C.3   237  SER237      0.2130
    126  OG       -16.7780   11.2010   21.1720 O.3   237  SER237     -0.2179
    127  N        -17.1840    8.8150   17.6370 N.am  238  ARG238     -0.1977
    128  CA       -18.1060    8.1360   16.7800 C.3   238  ARG238      0.1597
    129  C        -19.0680    7.3890   17.6350 C.2   238  ARG238      0.2287
    130  O        -18.6860    6.6550   18.5270 O.2   238  ARG238     -0.2864
    131  CB       -17.3980    7.2130   15.8460 C.3   238  ARG238      0.0334
    132  CG       -16.6650    7.9490   14.8000 C.3   238  ARG238      0.0492
    133  CD       -15.8430    7.0070   14.0010 C.3   238  ARG238      0.2205
    134  NE       -15.1390    7.7220   12.9610 N.pl3 238  ARG238     -0.0865
    135  CZ       -13.8570    7.6160   12.7110 C.cat 238  ARG238      0.5346
    136  NH1      -13.3930    8.2500   11.6700 N.pl3 238  ARG238      0.1354
    137  NH2      -13.0430    6.9220   13.4750 N.pl3 238  ARG238      0.1354
    138  N        -20.0230   13.1860   13.5150 N.3   256  LYS256     -0.1245
    139  CA       -19.5080   13.9040   12.3930 C.3   256  LYS256      0.1561
    140  C        -19.2270   13.0190   11.2270 C.2   256  LYS256      0.2260
    141  O        -19.0420   13.5270   10.1400 O.2   256  LYS256     -0.2867
    142  CB       -18.2270   14.6110   12.7710 C.3   256  LYS256      0.0271
    143  CG       -17.8620   15.6820   11.7560 C.3   256  LYS256      0.0035
    144  CD       -16.4390   16.1320   11.8570 C.3   256  LYS256      0.0206
    145  CE       -16.1360   16.7930   13.1530 C.3   256  LYS256      0.1093
    146  NZ       -14.9440   17.6810   13.0150 N.3   256  LYS256     -0.1314
    147  N        -18.4330   13.8300    7.2680 N.3   260  ARG260     -0.1245
    148  CA       -17.2110   13.4180    6.6180 C.3   260  ARG260      0.1563
    149  C        -17.5180   12.5730    5.4220 C.2   260  ARG260      0.2260
    150  O        -16.9730   12.7680    4.3430 O.2   260  ARG260     -0.2867
    151  CB       -16.3730   12.6300    7.5760 C.3   260  ARG260      0.0307
    152  CG       -15.8360   13.3910    8.7330 C.3   260  ARG260      0.0489
    153  CD       -15.0620   12.4880    9.5890 C.3   260  ARG260      0.2205
    154  NE       -14.5500   13.1530   10.7730 N.pl3 260  ARG260     -0.0865
    155  CZ       -14.7580   12.7490   12.0070 C.cat 260  ARG260      0.5346
    156  NH1      -15.4510   11.6660   12.2720 N.pl3 260  ARG260      0.1354
    157  NH2      -14.2750   13.4750   12.9820 N.pl3 260  ARG260      0.1354
@<TRIPOS>BOND
     1   150   149    2
     2   149   148    1
     3   148   147    1
     4   148   151    1
     5   151   152    1
     6    12    13    2
     7    12    11    1
     8    10    11    1
     9   152   153    1
    10    14    11    1
    11    14    15    1
    12   153   154    1
    13    16    15   ar
    14    15    17   ar
    15   141   140    2
    16    49    48    2
    17    47    46    1
    18    47    50    1
    19    47    48    1
    20   154   155    2
    21    50    51    1
    22   140   139    1
    23    61    60    2
    24   136   135    1
    25   143   144    1
    26   143   142    1
    27    58    59    1
    28   144   145    1
    29   155   156    1
    30   155   157    1
    31     7     6    1
    32     7     8    1
    33    60    59    1
    34   139   142    1
    35   139   138    1
    36    72    71    2
    37     6     5    1
    38   135   134    2
    39   135   137    1
    40    59    62    1
    41   134   133    1
    42   146   145    1
    43     8     9    1
    44    66    67    1
    45    71    70    1
    46    71    73   am
    47    70    67    1
    48     5     2    1
    49    69    68    2
    50     4     3    2
    51    62    63    1
    52   133   132    1
    53    67    68    1
    54     2     3    1
    55     2     1    1
    56    64    63   ar
    57    63    65   ar
    58   132   131    1
    59    44    43    1
    60    45    43    1
    61   114   112   ar
    62    43    42    2
    63   131   128    1
    64    80    79   ar
    65    56    57    1
    66    56    53    1
    67   112   113   ar
    68   112   111    1
    69    42    41    1
    70   110   109    2
    71   128   129    1
    72   128   127    1
    73    79    81   ar
    74    79    78    1
    75   108   111    1
    76   108   109    1
    77   108   107    1
    78   124   123    2
    79    41    40    1
    80    53    54    1
    81    53    52    1
    82   109   115   am
    83    34    32    1
    84   129   130    2
    85   127   123   am
    86   123   122    1
    87    54    55    2
    88    25    24   ar
    89    40    39    1
    90    78    75    1
    91    23    24    1
    92    23    22    1
    93   115   116    1
    94   121   122    1
    95   121   117   am
    96    24    26   ar
    97   122   125    1
    98    39    36    1
    99    33    31    1
   100    32    31    1
   101   117   116    1
   102   117   118    2
   103    74    75    1
   104   116   119    1
   105    22    19    1
   106    75    76    1
   107    31    28    1
   108    77    76    2
   109    76    82   am
   110    96    97    1
   111    96    95    1
   112    93    94    1
   113    93    90    1
   114   105   104   ar
   115    94    95    1
   116   125   126    1
   117    36    37    1
   118    36    35    1
   119    82    83    1
   120   119   120    1
   121    19    18    1
   122    19    20    1
   123    21    20    2
   124    37    38    2
   125    83    84    1
   126    83    86    1
   127    89    84   am
   128    89    90    1
   129    84    85    2
   130    28    27    1
   131    28    29    1
   132   106   104   ar
   133   104   103    1
   134    90    91    1
   135    29    30    2
   136    86    87    1
   137    86    88    1
   138    91    92    2
   139   103   102    1
   140   102    99    1
   141    99    98    1
   142    99   100    1
   143   101   100    2
