@<TRIPOS>MOLECULE
tmp/2cnqA02.pdb
 96 89 0 0 0
SMALL
GASTEIGER

@<TRIPOS>ATOM
      1  N        -23.0370   21.3350   26.1560 N.3    58  LYS58      -0.1245
      2  CA       -23.8620   20.6340   27.0960 C.3    58  LYS58       0.1561
      3  C        -23.4680   19.1880   27.2260 C.2    58  LYS58       0.2260
      4  O        -23.4650   18.6350   28.2920 O.2    58  LYS58      -0.2867
      5  CB       -25.3050   20.7400   26.6370 C.3    58  LYS58       0.0271
      6  CG       -25.8420   22.1580   26.6030 C.3    58  LYS58       0.0035
      7  CD       -25.8190   22.9140   27.9310 C.3    58  LYS58       0.0206
      8  CE       -26.2080   24.3820   27.6810 C.3    58  LYS58       0.1093
      9  NZ       -26.5350   25.1130   28.9400 N.3    58  LYS58      -0.1314
     10  N        -20.4250   18.9660   29.2130 N.3    61  GLU61      -0.1245
     11  CA       -20.7370   19.1260   30.6120 C.3    61  GLU61       0.1567
     12  C        -21.2890   17.8800   31.2050 C.2    61  GLU61       0.2260
     13  O        -20.9640   17.5140   32.3180 O.2    61  GLU61      -0.2867
     14  CB       -21.6910   20.2760   30.8140 C.3    61  GLU61       0.0388
     15  CG       -21.0610   21.6200   30.5290 C.3    61  GLU61       0.1160
     16  CD       -22.0160   22.6820   30.7770 C.2    61  GLU61       0.3649
     17  OE1      -22.0520   23.1740   31.9220 O.co2  61  GLU61      -0.2457
     18  OE2      -22.7840   22.9680   29.8730 O.co2  61  GLU61      -0.2457
     19  N        -19.3650   15.8550   34.2160 N.3    65  LYS65      -0.1245
     20  CA       -20.0280   15.5270   35.4340 C.3    65  LYS65       0.1561
     21  C        -20.0230   14.0310   35.6430 C.2    65  LYS65       0.2260
     22  O        -19.8260   13.5660   36.7570 O.2    65  LYS65      -0.2867
     23  CB       -21.4320   16.0730   35.3650 C.3    65  LYS65       0.0271
     24  CG       -22.2380   15.8030   36.6120 C.3    65  LYS65       0.0035
     25  CD       -23.6280   16.3690   36.5380 C.3    65  LYS65       0.0206
     26  CE       -23.6550   17.8830   36.4290 C.3    65  LYS65       0.1093
     27  NZ       -22.9570   18.5960   37.5360 N.3    65  LYS65      -0.1314
     28  N        -13.1270   22.6190   33.9710 N.3    75  LEU75      -0.1231
     29  CA       -14.1800   23.5660   34.2250 C.3    75  LEU75       0.1693
     30  C        -13.8590   24.3800   35.4510 C.2    75  LEU75       0.2591
     31  O        -13.4180   23.8520   36.4510 O.2    75  LEU75      -0.2718
     32  CB       -15.4660   22.8510   34.4850 C.3    75  LEU75       0.0284
     33  CG       -15.9680   22.0090   33.3490 C.3    75  LEU75       0.0019
     34  CD1      -17.2280   21.3070   33.7810 C.3    75  LEU75       0.0001
     35  CD2      -16.1850   22.8300   32.0980 C.3    75  LEU75       0.0001
     36  N        -14.1370   25.6630   35.4010 N.am   76  VAL76      -0.1980
     37  CA       -14.1530   26.4770   36.5720 C.3    76  VAL76       0.1595
     38  C        -15.4350   26.1550   37.3160 C.2    76  VAL76       0.2287
     39  O        -16.5010   26.1090   36.7700 O.2    76  VAL76      -0.2864
     40  CB       -14.0770   27.9360   36.2060 C.3    76  VAL76       0.0276
     41  CG1      -14.2520   28.8190   37.4140 C.3    76  VAL76       0.0022
     42  CG2      -12.7650   28.2270   35.5280 C.3    76  VAL76       0.0022
     43  N        -18.5860   27.1020   39.0230 N.3    78  ILE78      -0.1245
     44  CA       -19.4710   28.2310   38.9940 C.3    78  ILE78       0.1561
     45  C        -20.2070   28.1040   40.3310 C.2    78  ILE78       0.2260
     46  O        -20.7860   27.0470   40.5850 O.2    78  ILE78      -0.2867
     47  CB       -20.3650   28.1330   37.7510 C.3    78  ILE78       0.0252
     48  CG1      -19.5280   28.1970   36.4630 C.3    78  ILE78       0.0019
     49  CG2      -21.3740   29.2650   37.7190 C.3    78  ILE78       0.0019
     50  CD1      -18.6180   29.3780   36.3970 C.3    78  ILE78       0.0001
     51  N        -25.0510   30.7090   40.1380 N.3    82  LYS82      -0.1231
     52  CA       -24.4330   31.6330   39.2260 C.3    82  LYS82       0.1693
     53  C        -24.3390   31.0110   37.8670 C.2    82  LYS82       0.2593
     54  O        -24.5030   29.8170   37.6890 O.2    82  LYS82      -0.2718
     55  CB       -23.0890   32.0670   39.7490 C.3    82  LYS82       0.0285
     56  CG       -23.2100   32.6950   41.1070 C.3    82  LYS82       0.0035
     57  CD       -21.9990   33.4770   41.4980 C.3    82  LYS82       0.0206
     58  CE       -21.9970   33.7430   42.9820 C.3    82  LYS82       0.1093
     59  NZ       -23.1860   34.4770   43.4310 N.3    82  LYS82      -0.1314
     60  N        -24.0720   31.8610   36.9130 N.am   83  THR83      -0.1939
     61  CA       -23.8490   31.4340   35.5760 C.3    83  THR83       0.2028
     62  C        -22.4980   31.9150   35.1800 C.2    83  THR83       0.2642
     63  O        -21.8760   32.7230   35.8370 O.2    83  THR83      -0.2714
     64  CB       -24.8600   32.0140   34.6110 C.3    83  THR83       0.1808
     65  OG1      -24.5300   33.3730   34.4320 O.3    83  THR83      -0.2208
     66  CG2      -26.2790   31.8950   35.1140 C.3    83  THR83       0.0379
     67  N        -22.0720   31.4690   34.0280 N.am   84  ILE84      -0.1977
     68  CA       -20.8260   31.9600   33.5230 C.3    84  ILE84       0.1596
     69  C        -20.8220   33.4610   33.4060 C.2    84  ILE84       0.2287
     70  O        -19.8070   34.0830   33.5710 O.2    84  ILE84      -0.2864
     71  CB       -20.5600   31.3180   32.1550 C.3    84  ILE84       0.0276
     72  CG1      -19.1280   31.5650   31.7860 C.3    84  ILE84       0.0022
     73  CG2      -21.5180   31.8180   31.0560 C.3    84  ILE84       0.0022
     74  CD1      -18.7150   30.8880   30.5310 C.3    84  ILE84       0.0001
     75  N        -20.8040   28.1960   26.1490 N.3   105  SER105     -0.1202
     76  CA       -19.5700   28.6910   26.6750 C.3   105  SER105      0.2020
     77  C        -19.2570   28.0190   27.9540 C.2   105  SER105      0.2619
     78  O        -20.0930   27.8800   28.8310 O.2   105  SER105     -0.2717
     79  CB       -19.6640   30.1790   26.9180 C.3   105  SER105      0.2103
     80  OG       -19.8770   30.8630   25.7250 O.3   105  SER105     -0.2182
     81  N        -18.0050   27.6710   28.0990 N.am  106  LEU106     -0.1965
     82  CA       -17.5020   27.1610   29.3440 C.3   106  LEU106      0.1728
     83  C        -16.4390   28.0800   29.8250 C.2   106  LEU106      0.2616
     84  O        -15.6200   28.5490   29.0750 O.2   106  LEU106     -0.2715
     85  CB       -16.9460   25.7670   29.1750 C.3   106  LEU106      0.0311
     86  CG       -18.0100   24.7800   28.7510 C.3   106  LEU106      0.0022
     87  CD1      -17.3740   23.4870   28.4190 C.3   106  LEU106      0.0001
     88  CD2      -19.0360   24.5810   29.8090 C.3   106  LEU106      0.0001
     89  N        -16.4480   28.3040   31.1070 N.am  107  LEU107     -0.1977
     90  CA       -15.3900   29.0040   31.7760 C.3   107  LEU107      0.1596
     91  C        -14.4470   27.9350   32.2380 C.2   107  LEU107      0.2287
     92  O        -14.8440   27.0690   32.9960 O.2   107  LEU107     -0.2864
     93  CB       -15.9680   29.7660   32.9410 C.3   107  LEU107      0.0297
     94  CG       -15.0280   30.6850   33.6240 C.3   107  LEU107      0.0022
     95  CD1      -14.6830   31.8300   32.7320 C.3   107  LEU107      0.0001
     96  CD2      -15.6560   31.1630   34.8930 C.3   107  LEU107      0.0001
@<TRIPOS>BOND
     1    80    79    1
     2    75    76    1
     3     1     2    1
     4     6     5    1
     5     6     7    1
     6     5     2    1
     7    76    79    1
     8    76    77    1
     9     2     3    1
    10     3     4    2
    11     8     7    1
    12     8     9    1
    13    77    81   am
    14    77    78    2
    15    81    82    1
    16    87    86    1
    17    86    85    1
    18    86    88    1
    19    84    83    2
    20    85    82    1
    21    10    11    1
    22    82    83    1
    23    83    89   am
    24    18    16   ar
    25    15    16    1
    26    15    14    1
    27    74    72    1
    28    11    14    1
    29    11    12    1
    30    16    17   ar
    31    73    71    1
    32    89    90    1
    33    12    13    2
    34    90    91    1
    35    90    93    1
    36    72    71    1
    37    35    33    1
    38    71    68    1
    39    91    92    2
    40    95    94    1
    41    93    94    1
    42    33    34    1
    43    33    32    1
    44    69    68    1
    45    69    70    2
    46    68    67    1
    47    94    96    1
    48    28    29    1
    49    67    62   am
    50    19    20    1
    51    29    32    1
    52    29    30    1
    53    65    64    1
    54    64    66    1
    55    64    61    1
    56    62    61    1
    57    62    63    2
    58    23    20    1
    59    23    24    1
    60    36    30   am
    61    36    37    1
    62    20    21    1
    63    30    31    2
    64    42    40    1
    65    61    60    1
    66    21    22    2
    67    40    37    1
    68    40    41    1
    69    50    48    1
    70    26    25    1
    71    26    27    1
    72    48    47    1
    73    25    24    1
    74    37    38    1
    75    39    38    2
    76    60    53   am
    77    54    53    2
    78    49    47    1
    79    47    44    1
    80    53    52    1
    81    44    43    1
    82    44    45    1
    83    52    55    1
    84    52    51    1
    85    55    56    1
    86    45    46    2
    87    56    57    1
    88    57    58    1
    89    58    59    1
