@<TRIPOS>MOLECULE
tmp/2cnuA00.pdb
 80 77 0 0 0
SMALL
GASTEIGER

@<TRIPOS>ATOM
      1  N          4.6940   34.0090   -8.6960 N.3    39  SER39      -0.1202
      2  CA         4.2390   33.1320   -9.7600 C.3    39  SER39       0.2020
      3  C          2.8890   33.6050  -10.3010 C.2    39  SER39       0.2619
      4  O          2.1230   34.2790   -9.6330 O.2    39  SER39      -0.2717
      5  CB         4.2090   31.6680   -9.2910 C.3    39  SER39       0.2103
      6  OG         3.3340   31.4590   -8.1740 O.3    39  SER39      -0.2182
      7  N          2.6200   33.1890  -11.5300 N.am   40  ALA40      -0.1965
      8  CA         1.3140   33.3740  -12.1480 C.3    40  ALA40       0.1728
      9  C          1.0990   32.1900  -13.0750 C.2    40  ALA40       0.2616
     10  O          2.0640   31.7640  -13.7470 O.2    40  ALA40      -0.2715
     11  CB         1.1570   34.6870  -12.8740 C.3    40  ALA40       0.0334
     12  N         -0.1210   31.6600  -13.1280 N.am   41  TYR41      -0.1960
     13  CA        -0.4150   30.5270  -14.0010 C.3    41  TYR41       0.1771
     14  C          0.5800   29.4080  -13.7930 C.2    41  TYR41       0.2619
     15  O          1.0740   28.7940  -14.7760 O.2    41  TYR41      -0.2715
     16  CB        -0.4610   30.9630  -15.4780 C.3    41  TYR41       0.0574
     17  CG        -1.5090   32.0100  -15.7110 C.ar   41  TYR41      -0.0198
     18  CD1       -2.8730   31.6780  -15.7190 C.ar   41  TYR41      -0.0009
     19  CD2       -1.1920   33.2930  -16.0560 C.ar   41  TYR41      -0.0009
     20  CE1       -3.8540   32.6410  -15.9210 C.ar   41  TYR41       0.0417
     21  CE2       -2.1210   34.2180  -16.3080 C.ar   41  TYR41       0.0417
     22  CZ        -3.4780   33.9060  -16.2570 C.ar   41  TYR41       0.1957
     23  OH        -4.3760   34.8840  -16.5820 O.3    41  TYR41      -0.2866
     24  N          0.9580   29.1950  -12.5400 N.am   42  ASP42      -0.1971
     25  CA         1.8160   28.1200  -12.0020 C.3    42  ASP42       0.1709
     26  C          3.2350   28.0970  -12.6100 C.2    42  ASP42       0.2293
     27  O          3.9080   27.0650  -12.6140 O.2    42  ASP42      -0.2864
     28  CB         1.1130   26.7440  -12.0400 C.3    42  ASP42       0.1436
     29  CG         1.7300   25.7170  -11.0870 C.2    42  ASP42       0.3671
     30  OD1        2.2180   24.6740  -11.5890 O.co2  42  ASP42      -0.2456
     31  OD2        1.6680   25.9210   -9.8440 O.co2  42  ASP42      -0.2456
     32  N         -1.7000   36.1990    0.2210 N.3   234  PRO234     -0.2102
     33  CA        -2.2450   36.0120   -1.1240 C.3   234  PRO234      0.1504
     34  C         -1.5290   34.9110   -1.8950 C.2   234  PRO234      0.2575
     35  O         -2.0620   34.4840   -2.9150 O.2   234  PRO234     -0.2718
     36  CB        -2.0890   37.3880   -1.8000 C.3   234  PRO234      0.0282
     37  CG        -1.7050   38.3060   -0.7650 C.3   234  PRO234      0.0208
     38  CD        -1.2290   37.5920    0.4170 C.3   234  PRO234      0.0893
     39  N         -0.3900   34.4280   -1.4470 N.am  235  ASP235     -0.1974
     40  CA         0.2320   33.2860   -2.0640 C.3   235  ASP235      0.1708
     41  C         -0.3780   31.9900   -1.5970 C.2   235  ASP235      0.2293
     42  O         -0.4030   31.0260   -2.3470 O.2   235  ASP235     -0.2864
     43  CB         1.7460   33.2540   -1.7460 C.3   235  ASP235      0.1436
     44  CG         2.5990   34.1460   -2.6460 C.2   235  ASP235      0.3671
     45  OD1        3.7930   34.2380   -2.2940 O.co2 235  ASP235     -0.2456
     46  OD2        2.0890   34.6570   -3.6510 O.co2 235  ASP235     -0.2456
     47  N         -8.4160   38.7500   -9.2860 N.3   253  SER253     -0.1217
     48  CA        -7.4350   38.3920   -8.2670 C.3   253  SER253      0.1889
     49  C         -6.9260   39.6840   -7.5930 C.2   253  SER253      0.2288
     50  O         -6.3840   40.5490   -8.2780 O.2   253  SER253     -0.2866
     51  CB        -6.2900   37.6470   -8.8970 C.3   253  SER253      0.2089
     52  OG        -5.1960   37.6030   -7.9750 O.3   253  SER253     -0.2183
     53  N         -4.4010   40.3190   -5.7540 N.3   255  ASP255     -0.1225
     54  CA        -2.9590   40.4500   -5.8220 C.3   255  ASP255      0.1805
     55  C         -2.3820   40.4140   -7.2150 C.2   255  ASP255      0.2597
     56  O         -1.4140   41.0960   -7.5100 O.2   255  ASP255     -0.2718
     57  CB        -2.2790   39.3480   -4.9970 C.3   255  ASP255      0.1424
     58  CG        -2.7470   37.9210   -5.2940 C.2   255  ASP255      0.3668
     59  OD1       -1.8400   37.0200   -5.3390 O.co2 255  ASP255     -0.2456
     60  OD2       -3.9480   37.6250   -5.3220 O.co2 255  ASP255     -0.2456
     61  N         -2.9480   39.5630   -8.0680 N.am  256  LYS256     -0.1979
     62  CA        -2.3050   39.1540   -9.2990 C.3   256  LYS256      0.1596
     63  C         -3.0300   39.5250  -10.5710 C.2   256  LYS256      0.2287
     64  O         -2.5410   39.1800  -11.6500 O.2   256  LYS256     -0.2864
     65  CB        -2.0550   37.6560   -9.2630 C.3   256  LYS256      0.0298
     66  CG        -0.9630   37.4760   -8.3340 C.3   256  LYS256      0.0038
     67  CD        -0.4470   36.1450   -8.4990 C.3   256  LYS256      0.0206
     68  CE         0.6160   35.9020   -7.5430 C.3   256  LYS256      0.1093
     69  NZ         0.6910   34.4210   -7.3440 N.3   256  LYS256     -0.1314
     70  N         -1.6090   38.9690  -14.3460 N.3   260  ARG260     -0.1245
     71  CA        -2.2860   38.0100  -15.2020 C.3   260  ARG260      0.1563
     72  C         -2.7710   38.6340  -16.4800 C.2   260  ARG260      0.2260
     73  O         -2.6500   38.0460  -17.5690 O.2   260  ARG260     -0.2867
     74  CB        -3.4650   37.3990  -14.4750 C.3   260  ARG260      0.0307
     75  CG        -3.1710   36.4180  -13.3820 C.3   260  ARG260      0.0489
     76  CD        -4.5010   35.8060  -12.9560 C.3   260  ARG260      0.2205
     77  NE        -4.3620   35.0470  -11.7450 N.pl3 260  ARG260     -0.0865
     78  CZ        -5.4090   34.6620  -10.9960 C.cat 260  ARG260      0.5346
     79  NH1       -5.2870   34.0590   -9.8310 N.pl3 260  ARG260      0.1354
     80  NH2       -6.6050   34.9560  -11.4450 N.pl3 260  ARG260      0.1354
@<TRIPOS>BOND
     1    73    72    2
     2    23    22    1
     3    72    71    1
     4    21    22   ar
     5    21    19   ar
     6    22    20   ar
     7    19    17   ar
     8    20    18   ar
     9    18    17   ar
    10    17    16    1
    11    16    13    1
    12    71    74    1
    13    71    70    1
    14    15    14    2
    15    74    75    1
    16    13    14    1
    17    13    12    1
    18    14    24   am
    19    10     9    2
    20    75    76    1
    21    12     9   am
    22     9     8    1
    23    76    77    1
    24    11     8    1
    25    27    26    2
    26    26    25    1
    27    24    25    1
    28     8     7    1
    29    28    25    1
    30    28    29    1
    31    77    78    2
    32    64    63    2
    33    30    29   ar
    34     7     3   am
    35    80    78    1
    36    29    31   ar
    37    78    79    1
    38    63    62    1
    39     3     2    1
    40     3     4    2
    41     2     5    1
    42     2     1    1
    43    62    65    1
    44    62    61    1
    45     5     6    1
    46    47    48    1
    47    65    66    1
    48    51    48    1
    49    51    52    1
    50    67    66    1
    51    67    68    1
    52    50    49    2
    53    48    49    1
    54    61    55   am
    55    68    69    1
    56    56    55    2
    57    55    54    1
    58    54    53    1
    59    54    57    1
    60    59    58   ar
    61    60    58   ar
    62    58    57    1
    63    46    44   ar
    64    35    34    2
    65    44    45   ar
    66    44    43    1
    67    42    41    2
    68    40    43    1
    69    40    41    1
    70    40    39    1
    71    34    39   am
    72    34    33    1
    73    36    33    1
    74    36    37    1
    75    33    32    1
    76    37    38    1
    77    32    38    1
