@<TRIPOS>MOLECULE
tmp/2cnvA01.pdb
 161 152 0 0 0
SMALL
GASTEIGER

@<TRIPOS>ATOM
      1  N          8.4840   27.9520   -5.0470 N.3    18  LYS18      -0.1245
      2  CA         8.1650   29.0520   -5.9660 C.3    18  LYS18       0.1561
      3  C          8.6610   30.4000   -5.4180 C.2    18  LYS18       0.2260
      4  O          9.1760   31.2330   -6.1690 O.2    18  LYS18      -0.2867
      5  CB         6.6530   29.1500   -6.1730 C.3    18  LYS18       0.0271
      6  CG         6.0410   28.1670   -7.1870 C.3    18  LYS18       0.0035
      7  CD         4.5260   28.3380   -7.2220 C.3    18  LYS18       0.0206
      8  CE         3.9140   27.7670   -8.4980 C.3    18  LYS18       0.1093
      9  NZ         3.9770   26.2770   -8.5530 N.3    18  LYS18      -0.1314
     10  N          4.5470   34.2370   -8.6850 N.3    39  SER39      -0.1202
     11  CA         4.0960   33.2620   -9.6790 C.3    39  SER39       0.2020
     12  C          2.7360   33.6570  -10.2520 C.2    39  SER39       0.2619
     13  O          1.9350   34.3260   -9.5850 O.2    39  SER39      -0.2717
     14  CB         4.0390   31.8510   -9.0670 C.3    39  SER39       0.2103
     15  OG         3.6160   30.8860  -10.0130 O.3    39  SER39      -0.2182
     16  N          2.4950   33.2670  -11.5010 N.am   40  ALA40      -0.1965
     17  CA         1.1890   33.4410  -12.1340 C.3    40  ALA40       0.1728
     18  C          1.0110   32.2920  -13.1100 C.2    40  ALA40       0.2616
     19  O          1.9640   31.9060  -13.7870 O.2    40  ALA40      -0.2715
     20  CB         1.1090   34.7690  -12.8480 C.3    40  ALA40       0.0334
     21  N         -0.1890   31.7220  -13.1680 N.am   41  TYR41      -0.1960
     22  CA        -0.4350   30.5700  -14.0480 C.3    41  TYR41       0.1771
     23  C          0.6120   29.4650  -13.8560 C.2    41  TYR41       0.2619
     24  O          1.1320   28.9000  -14.8230 O.2    41  TYR41      -0.2715
     25  CB        -0.5010   31.0200  -15.5160 C.3    41  TYR41       0.0574
     26  CG        -1.5410   32.0860  -15.7760 C.ar   41  TYR41      -0.0198
     27  CD1       -2.9000   31.7680  -15.7950 C.ar   41  TYR41      -0.0009
     28  CD2       -1.1730   33.4090  -16.0020 C.ar   41  TYR41      -0.0009
     29  CE1       -3.8640   32.7400  -16.0300 C.ar   41  TYR41       0.0417
     30  CE2       -2.1300   34.3920  -16.2420 C.ar   41  TYR41       0.0417
     31  CZ        -3.4730   34.0470  -16.2570 C.ar   41  TYR41       0.1957
     32  OH        -4.4310   35.0060  -16.4930 O.3    41  TYR41      -0.2866
     33  N          0.9210   29.1840  -12.5910 N.am   42  ASP42      -0.1971
     34  CA         1.8900   28.1530  -12.1780 C.3    42  ASP42       0.1709
     35  C          3.3550   28.2700  -12.6310 C.2    42  ASP42       0.2293
     36  O          4.1060   27.2880  -12.5450 O.2    42  ASP42      -0.2864
     37  CB         1.3620   26.7350  -12.4320 C.3    42  ASP42       0.1436
     38  CG         1.0930   25.9860  -11.1480 C.2    42  ASP42       0.3671
     39  OD1        0.1070   26.3240  -10.4480 O.co2  42  ASP42      -0.2456
     40  OD2        1.8780   25.0580  -10.8390 O.co2  42  ASP42      -0.2456
     41  N         -6.6430   22.6100    2.7610 N.3   119  ILE119     -0.1245
     42  CA        -7.3530   23.6770    2.0860 C.3   119  ILE119      0.1561
     43  C         -8.7390   23.8030    2.7000 C.2   119  ILE119      0.2260
     44  O         -9.4140   22.8000    2.9600 O.2   119  ILE119     -0.2867
     45  CB        -7.4560   23.3830    0.5610 C.3   119  ILE119      0.0252
     46  CG1       -6.0570   23.4200   -0.0740 C.3   119  ILE119      0.0019
     47  CG2       -8.4260   24.3450   -0.1370 C.3   119  ILE119      0.0019
     48  CD1       -5.9680   22.7220   -1.4270 C.3   119  ILE119      0.0001
     49  N        -12.2820   26.0760    1.9250 N.3   121  ARG121     -0.1245
     50  CA       -12.9430   26.9310    0.9370 C.3   121  ARG121      0.1563
     51  C        -14.2070   27.4970    1.5580 C.2   121  ARG121      0.2260
     52  O        -15.0540   26.7380    2.0170 O.2   121  ARG121     -0.2867
     53  CB       -13.3250   26.1180   -0.3000 C.3   121  ARG121      0.0307
     54  CG       -12.1760   25.3290   -0.9400 C.3   121  ARG121      0.0489
     55  CD       -12.6900   24.5790   -2.1610 C.3   121  ARG121      0.2205
     56  NE       -11.6590   23.7040   -2.7180 N.pl3 121  ARG121     -0.0865
     57  CZ       -10.8480   24.0410   -3.7150 C.cat 121  ARG121      0.5346
     58  NH1      -10.9450   25.2330   -4.2870 N.pl3 121  ARG121      0.1354
     59  NH2       -9.9400   23.1770   -4.1440 N.pl3 121  ARG121      0.1354
     60  N        -10.5720   25.2190   -8.6760 N.3   127  SER127     -0.1217
     61  CA       -10.7940   23.8310   -9.0900 C.3   127  SER127      0.1889
     62  C        -12.0730   23.2210   -8.5030 C.2   127  SER127      0.2288
     63  O        -12.5790   22.2270   -9.0300 O.2   127  SER127     -0.2866
     64  CB        -9.5750   22.9600   -8.7810 C.3   127  SER127      0.2089
     65  OG        -9.4180   22.7570   -7.3880 O.3   127  SER127     -0.2183
     66  N         -6.6400   16.9370   -5.9380 N.3   166  ASN166     -0.1240
     67  CA        -7.7450   17.1510   -5.0110 C.3   166  ASN166      0.1653
     68  C         -8.2700   15.8160   -4.5070 C.2   166  ASN166      0.2266
     69  O         -8.5990   14.9370   -5.2980 O.2   166  ASN166     -0.2867
     70  CB        -8.8720   17.9300   -5.6870 C.3   166  ASN166      0.1155
     71  CG        -8.4980   19.3730   -5.9930 C.2   166  ASN166      0.2627
     72  OD1       -7.5250   19.9140   -5.4610 O.2   166  ASN166     -0.2716
     73  ND2       -9.2930   20.0120   -6.8460 N.am  166  ASN166     -0.0877
     74  N        -10.6760   31.2900   -0.0650 N.3   208  ASP208     -0.1225
     75  CA       -10.1660   30.0020    0.3680 C.3   208  ASP208      0.1805
     76  C         -8.7100   30.1820    0.7870 C.2   208  ASP208      0.2598
     77  O         -8.1250   31.2540    0.5680 O.2   208  ASP208     -0.2718
     78  CB       -10.3180   28.9400   -0.7420 C.3   208  ASP208      0.1424
     79  CG        -9.6970   29.3730   -2.0630 C.2   208  ASP208      0.3668
     80  OD1       -8.5930   29.9500   -2.0430 O.co2 208  ASP208     -0.2456
     81  OD2      -10.3020   29.1240   -3.1250 O.co2 208  ASP208     -0.2456
     82  N         -8.1340   29.1570    1.4040 N.am  209  THR209     -0.1939
     83  CA        -6.7610   29.2280    1.8810 C.3   209  THR209      0.2028
     84  C         -6.1860   27.8330    2.0180 C.2   209  THR209      0.2642
     85  O         -6.9170   26.8620    2.2330 O.2   209  THR209     -0.2714
     86  CB        -6.6570   29.9720    3.2550 C.3   209  THR209      0.1808
     87  OG1       -5.2930   30.3350    3.5180 O.3   209  THR209     -0.2208
     88  CG2       -7.1780   29.1160    4.3960 C.3   209  THR209      0.0379
     89  N         -4.8680   27.7430    1.9050 N.am  210  LYS210     -0.1977
     90  CA        -4.1540   26.4950    2.1020 C.3   210  LYS210      0.1596
     91  C         -3.3090   26.6040    3.3660 C.2   210  LYS210      0.2287
     92  O         -2.3920   27.4050    3.4290 O.2   210  LYS210     -0.2864
     93  CB        -3.2840   26.2050    0.8750 C.3   210  LYS210      0.0298
     94  CG        -2.5110   24.8940    0.9120 C.3   210  LYS210      0.0038
     95  CD        -2.0100   24.5120   -0.4840 C.3   210  LYS210      0.0206
     96  CE        -0.8180   25.3570   -0.9160 C.3   210  LYS210      0.1093
     97  NZ        -0.5170   25.2180   -2.3750 N.3   210  LYS210     -0.1314
     98  N         -1.7710   36.4460    0.2580 N.3   231  PRO231     -0.2102
     99  CA        -2.3090   36.3080   -1.0960 C.3   231  PRO231      0.1504
    100  C         -1.6240   35.2150   -1.9200 C.2   231  PRO231      0.2576
    101  O         -2.1290   34.8550   -2.9830 O.2   231  PRO231     -0.2718
    102  CB        -2.0460   37.6810   -1.7350 C.3   231  PRO231      0.0282
    103  CG        -1.7060   38.5890   -0.6330 C.3   231  PRO231      0.0208
    104  CD        -1.1150   37.7530    0.4500 C.3   231  PRO231      0.0893
    105  N         -0.4970   34.6890   -1.4400 N.am  232  ASP232     -0.1960
    106  CA         0.1320   33.5400   -2.0980 C.3   232  ASP232      0.1840
    107  C         -0.4960   32.2110   -1.6780 C.2   232  ASP232      0.2623
    108  O         -0.5820   31.2970   -2.4870 O.2   232  ASP232     -0.2715
    109  CB         1.6540   33.4940   -1.8630 C.3   232  ASP232      0.1450
    110  CG         2.4290   34.4560   -2.7600 C.2   232  ASP232      0.3671
    111  OD1        1.8380   35.0660   -3.6710 O.co2 232  ASP232     -0.2456
    112  OD2        3.6530   34.5850   -2.5540 O.co2 232  ASP232     -0.2456
    113  N         -0.9030   32.0960   -0.4150 N.am  233  SER233     -0.1936
    114  CA        -1.4940   30.8540    0.1060 C.3   233  SER233      0.2055
    115  C         -3.0270   30.7980    0.0040 C.2   233  SER233      0.2644
    116  O         -3.6420   29.7640    0.3090 O.2   233  SER233     -0.2714
    117  CB        -1.0620   30.6350    1.5640 C.3   233  SER233      0.2130
    118  OG        -1.6770   31.5890    2.4090 O.3   233  SER233     -0.2179
    119  N         -3.6340   31.9010   -0.4310 N.am  234  SER234     -0.1935
    120  CA        -5.0920   32.0790   -0.3810 C.3   234  SER234      0.2055
    121  C         -5.5490   32.8630   -1.5990 C.2   234  SER234      0.2642
    122  O         -4.7200   33.4430   -2.3030 O.2   234  SER234     -0.2714
    123  CB        -5.4830   32.8750    0.8670 C.3   234  SER234      0.2130
    124  OG        -4.6200   32.5970    1.9610 O.3   234  SER234     -0.2179
    125  N         -6.8620   32.8720   -1.8360 N.am  235  ARG235     -0.1977
    126  CA        -7.4810   33.7490   -2.8220 C.3   235  ARG235      0.1597
    127  C         -8.0690   34.9840   -2.1620 C.2   235  ARG235      0.2287
    128  O         -9.0440   34.8950   -1.4140 O.2   235  ARG235     -0.2864
    129  CB        -8.5730   33.0130   -3.6010 C.3   235  ARG235      0.0334
    130  CG        -8.0480   32.2310   -4.7760 C.3   235  ARG235      0.0492
    131  CD        -9.1880   31.6480   -5.6060 C.3   235  ARG235      0.2205
    132  NE        -8.6540   30.8640   -6.7090 N.pl3 235  ARG235     -0.0865
    133  CZ        -8.4890   29.5430   -6.7060 C.cat 235  ARG235      0.5346
    134  NH1       -8.8340   28.8050   -5.6510 N.pl3 235  ARG235      0.1354
    135  NH2       -7.9680   28.9550   -7.7750 N.pl3 235  ARG235      0.1354
    136  N         -8.3750   38.7890   -9.0890 N.3   250  SER250     -0.1217
    137  CA        -7.3860   38.5200   -8.0560 C.3   250  SER250      0.1889
    138  C         -6.9490   39.8540   -7.4710 C.2   250  SER250      0.2288
    139  O         -6.4760   40.7380   -8.1930 O.2   250  SER250     -0.2866
    140  CB        -6.1760   37.7730   -8.6250 C.3   250  SER250      0.2089
    141  OG        -5.0750   37.8390   -7.7250 O.3   250  SER250     -0.2183
    142  N         -2.9870   39.7880   -7.9500 N.3   253  LYS253     -0.1245
    143  CA        -2.3640   39.3640   -9.2020 C.3   253  LYS253      0.1561
    144  C         -3.0750   39.7340  -10.5010 C.2   253  LYS253      0.2260
    145  O         -2.5740   39.3950  -11.5720 O.2   253  LYS253     -0.2867
    146  CB        -2.0480   37.8630   -9.1650 C.3   253  LYS253      0.0271
    147  CG        -0.9790   37.5360   -8.1400 C.3   253  LYS253      0.0035
    148  CD        -0.4880   36.1000   -8.2320 C.3   253  LYS253      0.0206
    149  CE         0.4790   35.7950   -7.0900 C.3   253  LYS253      0.1093
    150  NZ        -0.2240   35.7640   -5.7630 N.3   253  LYS253     -0.1314
    151  N         -1.7320   39.2420  -14.2540 N.3   257  ARG257     -0.1245
    152  CA        -2.4570   38.2560  -15.0610 C.3   257  ARG257      0.1563
    153  C         -2.9370   38.8490  -16.3860 C.2   257  ARG257      0.2260
    154  O         -2.7790   38.2290  -17.4340 O.2   257  ARG257     -0.2867
    155  CB        -3.6740   37.6940  -14.3110 C.3   257  ARG257      0.0307
    156  CG        -3.4200   36.5600  -13.3160 C.3   257  ARG257      0.0489
    157  CD        -4.6630   35.6710  -13.1320 C.3   257  ARG257      0.2205
    158  NE        -4.3000   34.3140  -12.7270 N.pl3 257  ARG257     -0.0865
    159  CZ        -5.0380   33.2250  -12.9390 C.cat 257  ARG257      0.5346
    160  NH1       -6.2050   33.3020  -13.5660 N.pl3 257  ARG257      0.1354
    161  NH2       -4.5970   32.0430  -12.5300 N.pl3 257  ARG257      0.1354
@<TRIPOS>BOND
     1   154   153    2
     2    32    31    1
     3   153   152    1
     4    31    30   ar
     5    31    29   ar
     6    30    28   ar
     7    29    27   ar
     8    28    26   ar
     9    27    26   ar
    10    26    25    1
    11    25    22    1
    12   152   155    1
    13   152   151    1
    14    24    23    2
    15   155   156    1
    16    22    23    1
    17    22    21    1
    18    23    33   am
    19    19    18    2
    20   160   159    1
    21   156   157    1
    22    21    18   am
    23   157   158    1
    24    18    17    1
    25   159   158    2
    26   159   161    1
    27    20    17    1
    28    35    36    2
    29    35    34    1
    30    33    34    1
    31    37    34    1
    32    37    38    1
    33    17    16    1
    34   145   144    2
    35    16    12   am
    36    38    40   ar
    37    38    39   ar
    38   144   143    1
    39    12    11    1
    40    12    13    2
    41    15    14    1
    42    11    14    1
    43    11    10    1
    44   143   146    1
    45   143   142    1
    46   146   147    1
    47    61    64    1
    48    61    60    1
    49    61    62    1
    50   136   137    1
    51    63    62    2
    52    64    65    1
    53   140   137    1
    54   140   141    1
    55     9     8    1
    56     8     7    1
    57   148   147    1
    58   148   149    1
    59   139   138    2
    60   137   138    1
    61   135   133    1
    62     7     6    1
    63     6     5    1
    64   149   150    1
    65    73    71   am
    66   132   133    2
    67   132   131    1
    68   133   134    1
    69     5     2    1
    70     4     3    2
    71    71    70    1
    72    71    72    2
    73     2     3    1
    74     2     1    1
    75    66    67    1
    76    70    67    1
    77   131   130    1
    78    69    68    2
    79    67    68    1
    80   130   129    1
    81    58    57    1
    82    59    57    1
    83    57    56    2
    84   111   110   ar
    85   129   126    1
    86    81    79   ar
    87   101   100    2
    88   126   127    1
    89   126   125    1
    90   110   112   ar
    91   110   109    1
    92    56    55    1
    93   108   107    2
    94    97    96    1
    95   122   121    2
    96   127   128    2
    97    55    54    1
    98   106   109    1
    99   106   107    1
   100   106   105    1
   101    79    80   ar
   102    79    78    1
   103   100   105   am
   104   100    99    1
   105   125   121   am
   106   102    99    1
   107   102   103    1
   108   107   113   am
   109   121   120    1
   110    48    46    1
   111    99    98    1
   112    54    53    1
   113    96    95    1
   114    78    75    1
   115   103   104    1
   116    95    94    1
   117   119   120    1
   118   119   115   am
   119   113   114    1
   120   120   123    1
   121    53    50    1
   122    47    45    1
   123    46    45    1
   124    74    75    1
   125   115   114    1
   126   115   116    2
   127   114   117    1
   128    98   104    1
   129    75    76    1
   130    45    42    1
   131    77    76    2
   132    76    82   am
   133   123   124    1
   134    93    94    1
   135    93    90    1
   136    50    51    1
   137    50    49    1
   138    82    83    1
   139    51    52    2
   140   117   118    1
   141    83    84    1
   142    83    86    1
   143    89    84   am
   144    89    90    1
   145    84    85    2
   146    42    43    1
   147    42    41    1
   148    90    91    1
   149    43    44    2
   150    86    87    1
   151    86    88    1
   152    91    92    2
