@<TRIPOS>MOLECULE
tmp/2cnwF02.pdb
 80 75 0 0 0
SMALL
GASTEIGER

@<TRIPOS>ATOM
      1  N          0.9650  -76.8150   24.1420 N.3    68  ASN68      -0.1240
      2  CA         0.6840  -77.7610   23.0810 C.3    68  ASN68       0.1653
      3  C          0.7490  -77.1940   21.6860 C.2    68  ASN68       0.2266
      4  O          0.1540  -76.1470   21.4040 O.2    68  ASN68      -0.2867
      5  CB        -0.6890  -78.3890   23.3100 C.3    68  ASN68       0.1155
      6  CG        -0.7470  -79.1560   24.6060 C.2    68  ASN68       0.2627
      7  OD1       -1.0860  -78.5880   25.6510 O.2    68  ASN68      -0.2716
      8  ND2       -0.3490  -80.4340   24.5710 N.am   68  ASN68      -0.0877
      9  N          3.6310  -88.9420   26.0220 N.3    98  PHE98      -0.1241
     10  CA         2.1680  -88.8700   26.1670 C.3    98  PHE98       0.1605
     11  C          1.3770  -88.8210   24.8670 C.2    98  PHE98       0.2264
     12  O          0.4710  -89.6210   24.6770 O.2    98  PHE98      -0.2867
     13  CB         1.7560  -87.6540   27.0040 C.3    98  PHE98       0.0534
     14  CG         0.2640  -87.4300   27.0380 C.ar   98  PHE98      -0.0203
     15  CD1       -0.5740  -88.3080   27.7450 C.ar   98  PHE98      -0.0042
     16  CD2       -0.3090  -86.3540   26.3670 C.ar   98  PHE98      -0.0042
     17  CE1       -1.9480  -88.1020   27.7880 C.ar   98  PHE98      -0.0003
     18  CE2       -1.6860  -86.1530   26.3930 C.ar   98  PHE98      -0.0003
     19  CZ        -2.5020  -87.0180   27.1120 C.ar   98  PHE98      -0.0000
     20  N          8.6360  -89.6520   31.4320 N.3   126  PRO126     -0.2116
     21  CA         9.5590  -88.7290   30.7660 C.3   126  PRO126      0.1372
     22  C         10.8090  -88.4610   31.6060 C.2   126  PRO126      0.2244
     23  O         11.8870  -88.2950   31.0520 O.2   126  PRO126     -0.2868
     24  CB         8.7270  -87.4530   30.5880 C.3   126  PRO126      0.0268
     25  CG         7.5260  -87.6220   31.4660 C.3   126  PRO126      0.0207
     26  CD         7.2930  -89.0680   31.6110 C.3   126  PRO126      0.0892
     27  N          6.4740  -83.1630   26.4230 N.3   150  ALA150     -0.1231
     28  CA         5.1100  -83.1060   25.9210 C.3   150  ALA150      0.1694
     29  C          4.5360  -81.7080   26.1430 C.2   150  ALA150      0.2593
     30  O          4.8630  -81.0370   27.1280 O.2   150  ALA150     -0.2718
     31  CB         4.2110  -84.1900   26.5810 C.3   150  ALA150      0.0304
     32  N          3.6950  -81.2630   25.2230 N.am  151  GLY151     -0.1942
     33  CA         2.9820  -80.0140   25.4320 C.3   151  GLY151      0.2014
     34  C          2.1240  -80.1480   26.6670 C.2   151  GLY151      0.2638
     35  O          1.5370  -81.2050   26.9220 O.2   151  GLY151     -0.2714
     36  N          2.0610  -79.0890   27.4500 N.am  152  ARG152     -0.1977
     37  CA         1.2420  -79.0850   28.6520 C.3   152  ARG152      0.1597
     38  C          0.7280  -77.6680   28.8750 C.2   152  ARG152      0.2287
     39  O          1.4100  -76.6770   28.5660 O.2   152  ARG152     -0.2864
     40  CB         2.0280  -79.6050   29.8800 C.3   152  ARG152      0.0334
     41  CG         3.1510  -78.6670   30.3990 C.3   152  ARG152      0.0492
     42  CD         4.2590  -79.4100   31.1670 C.3   152  ARG152      0.2205
     43  NE         4.9420  -80.3680   30.3040 N.pl3 152  ARG152     -0.0865
     44  CZ         5.1220  -81.6540   30.5830 C.cat 152  ARG152      0.5346
     45  NH1        4.6970  -82.1620   31.7430 N.pl3 152  ARG152      0.1354
     46  NH2        5.7400  -82.4340   29.6920 N.pl3 152  ARG152      0.1354
     47  N         -2.2620  -76.8950   34.5460 N.3   156  LYS156     -0.1245
     48  CA        -2.3130  -78.2700   35.0590 C.3   156  LYS156      0.1561
     49  C         -1.1430  -78.5180   36.0110 C.2   156  LYS156      0.2260
     50  O         -0.0580  -78.9300   35.5750 O.2   156  LYS156     -0.2867
     51  CB        -2.2880  -79.2760   33.8980 C.3   156  LYS156      0.0271
     52  CG        -3.6530  -79.7290   33.3660 C.3   156  LYS156      0.0035
     53  CD        -4.3760  -78.6480   32.5880 C.3   156  LYS156      0.0206
     54  CE        -5.6160  -79.2030   31.8870 C.3   156  LYS156      0.1093
     55  NZ        -5.3100  -80.1570   30.7530 N.3   156  LYS156     -0.1314
     56  N         -0.2400  -80.7310   38.1720 N.3   158  ASN158     -0.1225
     57  CA         0.4100  -82.0330   38.0670 C.3   158  ASN158      0.1785
     58  C          1.3650  -82.1600   36.8700 C.2   158  ASN158      0.2597
     59  O          2.4030  -82.8250   36.9800 O.2   158  ASN158     -0.2718
     60  CB        -0.6180  -83.1730   38.0470 C.3   158  ASN158      0.1169
     61  CG        -1.3800  -83.2530   36.7340 C.2   158  ASN158      0.2627
     62  OD1       -1.8470  -82.2470   36.2180 O.2   158  ASN158     -0.2716
     63  ND2       -1.4940  -84.4620   36.1840 N.am  158  ASN158     -0.0877
     64  N          1.0340  -81.5230   35.7440 N.am  159  LEU159     -0.1980
     65  CA         1.9090  -81.5740   34.5620 C.3   159  LEU159      0.1596
     66  C          3.1050  -80.6630   34.7220 C.2   159  LEU159      0.2287
     67  O          4.2040  -80.9840   34.2780 O.2   159  LEU159     -0.2864
     68  CB         1.1470  -81.2530   33.2740 C.3   159  LEU159      0.0297
     69  CG         0.0160  -82.2230   32.9100 C.3   159  LEU159      0.0022
     70  CD1       -0.5680  -81.8860   31.5420 C.3   159  LEU159      0.0001
     71  CD2        0.4620  -83.6870   33.0060 C.3   159  LEU159      0.0001
     72  N          5.4020  -82.6030   36.9440 N.3   162  GLU162     -0.1245
     73  CA         6.0500  -83.5710   36.0570 C.3   162  GLU162      0.1567
     74  C          7.2650  -82.9700   35.3400 C.2   162  GLU162      0.2260
     75  O          8.3140  -83.5980   35.2670 O.2   162  GLU162     -0.2867
     76  CB         5.0410  -84.1270   35.0470 C.3   162  GLU162      0.0388
     77  CG         5.5600  -85.3240   34.2650 C.3   162  GLU162      0.1160
     78  CD         4.6700  -85.7090   33.0950 C.2   162  GLU162      0.3649
     79  OE1        4.0720  -86.7920   33.1830 O.co2 162  GLU162     -0.2457
     80  OE2        4.5720  -84.9460   32.0990 O.co2 162  GLU162     -0.2457
@<TRIPOS>BOND
     1     4     3    2
     2     3     2    1
     3     2     5    1
     4     2     1    1
     5     5     6    1
     6     8     6   am
     7     6     7    2
     8    12    11    2
     9    11    10    1
    10    32    33    1
    11    32    29   am
    12    33    34    1
    13    28    29    1
    14    28    27    1
    15    28    31    1
    16     9    10    1
    17    29    30    2
    18    10    13    1
    19    16    18   ar
    20    16    14   ar
    21    18    19   ar
    22    34    35    2
    23    34    36   am
    24    13    14    1
    25    14    15   ar
    26    19    17   ar
    27    36    37    1
    28    15    17   ar
    29    39    38    2
    30    37    38    1
    31    37    40    1
    32    46    44    1
    33    40    41    1
    34    43    44    2
    35    43    42    1
    36    41    42    1
    37    44    45    1
    38    24    21    1
    39    24    25    1
    40    55    54    1
    41    21    20    1
    42    21    22    1
    43    23    22    2
    44    20    26    1
    45    25    26    1
    46    70    69    1
    47    54    53    1
    48    80    78   ar
    49    53    52    1
    50    69    71    1
    51    69    68    1
    52    78    79   ar
    53    78    77    1
    54    68    65    1
    55    52    51    1
    56    51    48    1
    57    77    76    1
    58    67    66    2
    59    47    48    1
    60    65    66    1
    61    65    64    1
    62    76    73    1
    63    48    49    1
    64    75    74    2
    65    74    73    1
    66    50    49    2
    67    64    58   am
    68    73    72    1
    69    63    61   am
    70    62    61    2
    71    61    60    1
    72    58    59    2
    73    58    57    1
    74    60    57    1
    75    57    56    1
