@<TRIPOS>MOLECULE
tmp/2co0A00.pdb
 208 202 0 0 0
SMALL
GASTEIGER

@<TRIPOS>ATOM
      1  N          8.3090   12.0820    1.5440 N.3    17  ALA17      -0.1231
      2  CA         8.9770   11.3130    2.5860 C.3    17  ALA17       0.1694
      3  C         10.0630   10.4260    1.9980 C.2    17  ALA17       0.2592
      4  O          9.8830    9.8390    0.9310 O.2    17  ALA17      -0.2718
      5  CB         7.9630   10.4400    3.3180 C.3    17  ALA17       0.0304
      6  N         11.1950   10.3420    2.6890 N.am   18  VAL18      -0.1966
      7  CA        12.2860    9.4830    2.2440 C.3    18  VAL18       0.1727
      8  C         11.9170    8.0950    2.7740 C.2    18  VAL18       0.2616
      9  O         11.2810    7.9820    3.8240 O.2    18  VAL18      -0.2715
     10  CB        13.6350    9.9240    2.8400 C.3    18  VAL18       0.0290
     11  CG1       14.7470    9.0240    2.3260 C.3    18  VAL18       0.0023
     12  CG2       13.9230   11.3740    2.4670 C.3    18  VAL18       0.0023
     13  N         12.2980    7.0410    2.0620 N.am   19  SER19      -0.1950
     14  CA        11.9430    5.7010    2.5040 C.3    19  SER19       0.1924
     15  C         13.1300    4.8210    2.8930 C.2    19  SER19       0.2314
     16  O         12.9780    3.8760    3.6640 O.2    19  SER19      -0.2863
     17  CB        11.1480    4.9910    1.4070 C.3    19  SER19       0.2116
     18  OG        11.9500    4.8190    0.2480 O.3    19  SER19      -0.2180
     19  N          9.2410    8.3830   -1.6030 N.3    35  ALA35      -0.1245
     20  CA         7.8760    8.2440   -2.0720 C.3    35  ALA35       0.1562
     21  C          7.7000    9.1670   -3.2760 C.2    35  ALA35       0.2260
     22  O          6.6610    9.1390   -3.9350 O.2    35  ALA35      -0.2867
     23  CB         6.8950    8.6240   -0.9640 C.3    35  ALA35       0.0290
     24  N          5.9550    5.6040   -5.8980 N.3    59  GLY59      -0.1210
     25  CA         6.9010    5.6410   -4.7960 C.3    59  GLY59       0.1956
     26  C          7.8050    4.4230   -4.7000 C.2    59  GLY59       0.2612
     27  O          7.4470    3.3210   -5.1400 O.2    59  GLY59      -0.2717
     28  N          8.9800    4.6330   -4.1050 N.am   60  ILE60      -0.1965
     29  CA         9.9840    3.5890   -3.9310 C.3    60  ILE60       0.1727
     30  C         10.1670    3.3170   -2.4410 C.2    60  ILE60       0.2617
     31  O         10.3860    4.2490   -1.6660 O.2    60  ILE60      -0.2715
     32  CB        11.3380    4.0410   -4.5240 C.3    60  ILE60       0.0290
     33  CG1       11.1690    4.3670   -6.0100 C.3    60  ILE60       0.0022
     34  CG2       12.3950    2.9630   -4.3250 C.3    60  ILE60       0.0023
     35  CD1       12.3490    5.1420   -6.5970 C.3    60  ILE60       0.0001
     36  N         10.0880    2.0470   -2.0430 N.am   61  SER61      -0.1936
     37  CA        10.2330    1.6700   -0.6310 C.3    61  SER61       0.2055
     38  C         11.6290    1.2170   -0.2140 C.2    61  SER61       0.2643
     39  O         11.9240    1.1560    0.9770 O.2    61  SER61      -0.2714
     40  CB         9.2570    0.5440   -0.2640 C.3    61  SER61       0.2130
     41  OG         7.9090    0.9800   -0.2540 O.3    61  SER61      -0.2179
     42  N         12.4940    0.8990   -1.1700 N.am   62  ASP62      -0.1971
     43  CA        13.8070    0.4150   -0.7900 C.3    62  ASP62       0.1709
     44  C         14.7920    0.4060   -1.9450 C.2    62  ASP62       0.2293
     45  O         14.3970    0.3920   -3.1100 O.2    62  ASP62      -0.2864
     46  CB        13.6470   -0.9990   -0.2080 C.3    62  ASP62       0.1436
     47  CG        14.8570   -1.4600    0.5940 C.2    62  ASP62       0.3671
     48  OD1       15.6270   -0.6030    1.0810 O.co2  62  ASP62      -0.2456
     49  OD2       15.0190   -2.6910    0.7560 O.co2  62  ASP62      -0.2456
     50  N          6.2620    0.7070   -5.6630 N.3    77  ASP77      -0.1239
     51  CA         4.8350    0.4120   -5.6240 C.3    77  ASP77       0.1674
     52  C          4.3040    0.0940   -7.0290 C.2    77  ASP77       0.2266
     53  O          3.2240   -0.4820   -7.1670 O.2    77  ASP77      -0.2867
     54  CB         4.0480    1.6020   -5.0740 C.3    77  ASP77       0.1410
     55  CG         4.1230    1.7200   -3.5610 C.2    77  ASP77       0.3668
     56  OD1        4.7290    0.8480   -2.9010 O.co2  77  ASP77      -0.2456
     57  OD2        3.5580    2.6990   -3.0310 O.co2  77  ASP77      -0.2456
     58  N          2.7300   -4.1510   -4.6080 N.3   101  TYR101     -0.1241
     59  CA         3.9070   -3.3650   -4.2500 C.3   101  TYR101      0.1605
     60  C          5.1130   -4.2120   -3.8980 C.2   101  TYR101      0.2264
     61  O          4.9810   -5.2220   -3.2190 O.2   101  TYR101     -0.2867
     62  CB         3.6180   -2.4640   -3.0460 C.3   101  TYR101      0.0534
     63  CG         2.3090   -1.7390   -3.1280 C.ar  101  TYR101     -0.0201
     64  CD1        1.9030   -1.1310   -4.3170 C.ar  101  TYR101     -0.0009
     65  CD2        1.4610   -1.6690   -2.0220 C.ar  101  TYR101     -0.0009
     66  CE1        0.6890   -0.4770   -4.4060 C.ar  101  TYR101      0.0417
     67  CE2        0.2390   -1.0140   -2.1010 C.ar  101  TYR101      0.0417
     68  CZ        -0.1400   -0.4220   -3.2970 C.ar  101  TYR101      0.1957
     69  OH        -1.3520    0.2240   -3.3850 O.3   101  TYR101     -0.2866
     70  N          8.2450   -4.2220   -1.7450 N.3   103  PHE103     -0.1227
     71  CA         8.6120   -3.4840   -0.5470 C.3   103  PHE103      0.1736
     72  C         10.0850   -3.4820   -0.1480 C.2   103  PHE103      0.2595
     73  O         10.5720   -2.5260    0.4550 O.2   103  PHE103     -0.2718
     74  CB         7.7940   -4.0580    0.6060 C.3   103  PHE103      0.0547
     75  CG         7.5820   -3.1120    1.7420 C.ar  103  PHE103     -0.0202
     76  CD1        6.6700   -2.0700    1.6290 C.ar  103  PHE103     -0.0042
     77  CD2        8.2430   -3.3050    2.9490 C.ar  103  PHE103     -0.0042
     78  CE1        6.4030   -1.2280    2.7090 C.ar  103  PHE103     -0.0003
     79  CE2        7.9910   -2.4680    4.0490 C.ar  103  PHE103     -0.0003
     80  CZ         7.0650   -1.4300    3.9260 C.ar  103  PHE103     -0.0000
     81  N         10.7920   -4.5510   -0.4840 N.am  104  CYS104     -0.1970
     82  CA        12.1750   -4.6810   -0.0850 C.3   104  CYS104      0.1712
     83  C         13.0110   -5.4260   -1.1040 C.2   104  CYS104      0.2296
     84  O         12.4880   -6.2290   -1.8750 O.2   104  CYS104     -0.2864
     85  CB        12.2220   -5.4160    1.2550 C.3   104  CYS104      0.0983
     86  SG        11.1280   -6.8760    1.3170 S.3   104  CYS104     -0.0798
     87  N          4.0710   -7.0680   -1.2220 N.3   119  PHE119     -0.1241
     88  CA         2.7860   -7.1410   -0.5540 C.3   119  PHE119      0.1605
     89  C          2.0040   -8.3460   -1.0810 C.2   119  PHE119      0.2264
     90  O          1.0280   -8.7670   -0.4630 O.2   119  PHE119     -0.2867
     91  CB         1.9920   -5.8680   -0.8160 C.3   119  PHE119      0.0534
     92  CG         2.0690   -4.8760    0.2910 C.ar  119  PHE119     -0.0203
     93  CD1        3.2980   -4.4630    0.7910 C.ar  119  PHE119     -0.0042
     94  CD2        0.9090   -4.3500    0.8400 C.ar  119  PHE119     -0.0042
     95  CE1        3.3690   -3.5370    1.8250 C.ar  119  PHE119     -0.0003
     96  CE2        0.9700   -3.4220    1.8760 C.ar  119  PHE119     -0.0003
     97  CZ         2.2010   -3.0150    2.3700 C.ar  119  PHE119     -0.0000
     98  N          7.8670   -7.6710    4.6840 N.3   145  SER145     -0.1202
     99  CA         8.5180   -6.4290    5.0740 C.3   145  SER145      0.2020
    100  C         10.0160   -6.3270    4.7990 C.2   145  SER145      0.2618
    101  O         10.5360   -5.2240    4.6030 O.2   145  SER145     -0.2717
    102  CB         8.2210   -6.1600    6.5610 C.3   145  SER145      0.2103
    103  OG         8.4850   -7.3110    7.3460 O.3   145  SER145     -0.2182
    104  N         10.7080   -7.4610    4.7650 N.am  146  ALA146     -0.1979
    105  CA        12.1420   -7.4370    4.5130 C.3   146  ALA146      0.1597
    106  C         12.6810   -8.7480    3.9540 C.2   146  ALA146      0.2287
    107  O         12.1130   -9.8080    4.1950 O.2   146  ALA146     -0.2864
    108  CB        12.8880   -7.0780    5.8060 C.3   146  ALA146      0.0319
    109  N          4.2750   -9.3970    7.9920 N.3   161  TYR161     -0.1241
    110  CA         3.2080   -8.9600    8.8710 C.3   161  TYR161      0.1605
    111  C          2.4570  -10.1820    9.4110 C.2   161  TYR161      0.2264
    112  O          1.6230  -10.0470   10.3030 O.2   161  TYR161     -0.2867
    113  CB         2.2340   -8.0360    8.1330 C.3   161  TYR161      0.0534
    114  CG         2.6550   -6.5810    8.0790 C.ar  161  TYR161     -0.0201
    115  CD1        3.7950   -6.1890    7.3920 C.ar  161  TYR161     -0.0009
    116  CD2        1.9010   -5.5960    8.7130 C.ar  161  TYR161     -0.0009
    117  CE1        4.1770   -4.8460    7.3290 C.ar  161  TYR161      0.0417
    118  CE2        2.2720   -4.2510    8.6600 C.ar  161  TYR161      0.0417
    119  CZ         3.4130   -3.8860    7.9600 C.ar  161  TYR161      0.1957
    120  OH         3.7760   -2.5570    7.8720 O.3   161  TYR161     -0.2866
    121  N          8.2460   -6.1750   11.1970 N.3   188  SER188     -0.1202
    122  CA         8.4820   -5.0580   10.3000 C.3   188  SER188      0.2020
    123  C          9.8670   -4.9930    9.6890 C.2   188  SER188      0.2618
    124  O         10.1140   -4.1680    8.8210 O.2   188  SER188     -0.2717
    125  CB         8.1980   -3.7590   11.0480 C.3   188  SER188      0.2103
    126  OG         8.8760   -3.7540   12.2970 O.3   188  SER188     -0.2182
    127  N         10.7750   -5.8470   10.1380 N.am  189  PHE189     -0.1975
    128  CA        12.1240   -5.8390    9.5880 C.3   189  PHE189      0.1639
    129  C         12.9440   -6.9890   10.1530 C.2   189  PHE189      0.2290
    130  O         12.7680   -7.3790   11.3070 O.2   189  PHE189     -0.2864
    131  CB        12.8300   -4.5200    9.9250 C.3   189  PHE189      0.0560
    132  CG        14.2380   -4.4420    9.4150 C.ar  189  PHE189     -0.0200
    133  CD1       14.4920   -4.1220    8.0830 C.ar  189  PHE189     -0.0042
    134  CD2       15.3090   -4.7360   10.2500 C.ar  189  PHE189     -0.0042
    135  CE1       15.8030   -4.0950    7.5870 C.ar  189  PHE189     -0.0003
    136  CE2       16.6190   -4.7160    9.7690 C.ar  189  PHE189     -0.0003
    137  CZ        16.8660   -4.3950    8.4350 C.ar  189  PHE189     -0.0000
    138  N          5.3760    0.9400   16.2210 N.3   228  GLU228     -0.1231
    139  CA         4.1710    0.1370   16.1190 C.3   228  GLU228      0.1699
    140  C          3.4050    0.4440   14.8330 C.2   228  GLU228      0.2592
    141  O          2.2890   -0.0680   14.6710 O.2   228  GLU228     -0.2718
    142  CB         3.2220    0.3700   17.3080 C.3   228  GLU228      0.0402
    143  CG         3.6860    1.3380   18.3690 C.3   228  GLU228      0.1161
    144  CD         2.6050    1.5720   19.4210 C.2   228  GLU228      0.3649
    145  OE1        1.7160    2.4240   19.1990 O.co2 228  GLU228     -0.2457
    146  OE2        2.6460    0.8940   20.4680 O.co2 228  GLU228     -0.2457
    147  N          3.9860    1.2480   13.9350 N.am  229  LYS229     -0.1966
    148  CA         3.2530    1.5810   12.7270 C.3   229  LYS229      0.1728
    149  C          4.0250    1.3790   11.4230 C.2   229  LYS229      0.2616
    150  O          3.4860    0.8300   10.4620 O.2   229  LYS229     -0.2715
    151  CB         2.7730    3.0260   12.8070 C.3   229  LYS229      0.0311
    152  CG         2.0030    3.3710   14.0840 C.3   229  LYS229      0.0038
    153  CD         1.6150    4.8470   14.1200 C.3   229  LYS229      0.0206
    154  CE         0.9740    5.2370   15.4500 C.3   229  LYS229      0.1093
    155  NZ         0.4990    6.6570   15.4720 N.3   229  LYS229     -0.1314
    156  N          5.2770    1.8320   11.3750 N.am  230  TYR230     -0.1960
    157  CA         6.0670    1.7130   10.1460 C.3   230  TYR230      0.1771
    158  C          7.1640    0.6570   10.1900 C.2   230  TYR230      0.2620
    159  O          7.6130    0.2400   11.2620 O.2   230  TYR230     -0.2715
    160  CB         6.7100    3.0620    9.8040 C.3   230  TYR230      0.0574
    161  CG         5.7280    4.1990    9.6780 C.ar  230  TYR230     -0.0198
    162  CD1        5.1010    4.4830    8.4610 C.ar  230  TYR230     -0.0009
    163  CD2        5.3940    4.9700   10.7900 C.ar  230  TYR230     -0.0009
    164  CE1        4.1620    5.5070    8.3600 C.ar  230  TYR230      0.0417
    165  CE2        4.4590    5.9900   10.7020 C.ar  230  TYR230      0.0417
    166  CZ         3.8480    6.2530    9.4910 C.ar  230  TYR230      0.1957
    167  OH         2.9160    7.2570    9.4210 O.3   230  TYR230     -0.2866
    168  N          7.5860    0.2360    9.0020 N.am  231  CYS231     -0.1954
    169  CA         8.6610   -0.7390    8.8570 C.3   231  CYS231      0.1843
    170  C          9.9940    0.0130    8.8660 C.2   231  CYS231      0.2625
    171  O         10.5070    0.4330    7.8250 O.2   231  CYS231     -0.2714
    172  CB         8.5050   -1.5190    7.5480 C.3   231  CYS231      0.0997
    173  SG         7.0700   -2.6000    7.5360 S.3   231  CYS231     -0.0797
    174  N         10.5450    0.1770   10.0600 N.am  232  ILE232     -0.1963
    175  CA        11.7900    0.8970   10.2640 C.3   232  ILE232      0.1727
    176  C         13.0350    0.0120   10.2160 C.2   232  ILE232      0.2616
    177  O         13.1140   -1.0130   10.8930 O.2   232  ILE232     -0.2715
    178  CB        11.7420    1.6260   11.6150 C.3   232  ILE232      0.0290
    179  CG1       10.5500    2.5910   11.6200 C.3   232  ILE232      0.0022
    180  CG2       13.0600    2.3420   11.8740 C.3   232  ILE232      0.0023
    181  CD1       10.3820    3.3700   12.9190 C.3   232  ILE232      0.0001
    182  N         14.0010    0.4270    9.4050 N.am  233  PHE233     -0.1974
    183  CA        15.2540   -0.2950    9.2640 C.3   233  PHE233      0.1639
    184  C         16.0230   -0.3220   10.5840 C.2   233  PHE233      0.2290
    185  O         15.9120    0.6010   11.3840 O.2   233  PHE233     -0.2864
    186  CB        16.1430    0.3580    8.1930 C.3   233  PHE233      0.0560
    187  CG        15.6080    0.2340    6.7880 C.ar  233  PHE233     -0.0200
    188  CD1       14.7130    1.1690    6.2720 C.ar  233  PHE233     -0.0042
    189  CD2       16.0120   -0.8220    5.9760 C.ar  233  PHE233     -0.0042
    190  CE1       14.2340    1.0530    4.9620 C.ar  233  PHE233     -0.0003
    191  CE2       15.5360   -0.9500    4.6650 C.ar  233  PHE233     -0.0003
    192  CZ        14.6490   -0.0130    4.1590 C.ar  233  PHE233     -0.0000
    193  N         12.3330    6.8030    9.5720 N.3   275  ILE275     -0.1245
    194  CA        12.0360    5.5350    8.9200 C.3   275  ILE275      0.1561
    195  C         13.2410    4.6980    8.5310 C.2   275  ILE275      0.2260
    196  O         13.1350    3.4830    8.3950 O.2   275  ILE275     -0.2867
    197  CB        11.2020    5.7660    7.6340 C.3   275  ILE275      0.0252
    198  CG1       10.6360    4.4400    7.1170 C.3   275  ILE275      0.0019
    199  CG2       12.0710    6.3960    6.5610 C.3   275  ILE275      0.0019
    200  CD1        9.4510    3.9190    7.9060 C.3   275  ILE275      0.0001
    201  N         10.1270   10.8960    7.4780 N.3   291  LEU291     -0.1245
    202  CA         8.9410   10.9860    6.6480 C.3   291  LEU291      0.1561
    203  C          8.5070   12.3850    6.2080 C.2   291  LEU291      0.2260
    204  O          9.2360   13.3600    6.3630 O.2   291  LEU291     -0.2867
    205  CB         7.7920   10.2540    7.3400 C.3   291  LEU291      0.0270
    206  CG         8.1060    8.7790    7.6170 C.3   291  LEU291      0.0019
    207  CD1        6.9690    8.1410    8.3850 C.3   291  LEU291      0.0001
    208  CD2        8.3460    8.0540    6.2920 C.3   291  LEU291      0.0001
@<TRIPOS>BOND
     1    53    52    2
     2    52    51    1
     3    35    33    1
     4    33    32    1
     5    24    25    1
     6    50    51    1
     7    51    54    1
     8    27    26    2
     9    54    55    1
    10    25    26    1
    11    26    28   am
    12    58    59    1
    13    32    34    1
    14    32    29    1
    15    66    64   ar
    16    66    68   ar
    17    64    63   ar
    18    59    60    1
    19    59    62    1
    20    28    29    1
    21    22    21    2
    22    29    30    1
    23    60    61    2
    24    55    57   ar
    25    55    56   ar
    26    69    68    1
    27    68    67   ar
    28    21    20    1
    29    63    62    1
    30    63    65   ar
    31    45    44    2
    32    30    36   am
    33    30    31    2
    34    67    65   ar
    35    20    19    1
    36    20    23    1
    37    36    37    1
    38    44    43    1
    39    84    83    2
    40    70    71    1
    41    87    88    1
    42    42    43    1
    43    42    38   am
    44    83    82    1
    45    89    88    1
    46    89    90    2
    47    91    88    1
    48    91    92    1
    49    43    46    1
    50    37    40    1
    51    37    38    1
    52    71    72    1
    53    71    74    1
    54    81    72   am
    55    81    82    1
    56    40    41    1
    57    38    39    2
    58    46    47    1
    59    72    73    2
    60    82    85    1
    61    18    17    1
    62    92    93   ar
    63    92    94   ar
    64    47    49   ar
    65    47    48   ar
    66    74    75    1
    67    93    95   ar
    68    94    96   ar
    69     4     3    2
    70    85    86    1
    71    17    14    1
    72     1     2    1
    73    76    75   ar
    74    76    78   ar
    75    75    77   ar
    76    95    97   ar
    77    96    97   ar
    78     3     2    1
    79     3     6   am
    80    13    14    1
    81    13     8   am
    82     7     6    1
    83     7     8    1
    84     7    10    1
    85    11    10    1
    86    12    10    1
    87    14    15    1
    88     2     5    1
    89    78    80   ar
    90     8     9    2
    91    15    16    2
    92    77    79   ar
    93    80    79   ar
    94   106   107    2
    95   106   105    1
    96   192   191   ar
    97   192   190   ar
    98   105   104    1
    99   105   108    1
   100   101   100    2
   101   191   189   ar
   102    98    99    1
   103   104   100   am
   104   100    99    1
   105   190   188   ar
   106    99   102    1
   107   189   187   ar
   108   203   204    2
   109   203   202    1
   110   188   187   ar
   111   208   206    1
   112   199   197    1
   113   102   103    1
   114   202   205    1
   115   202   201    1
   116   187   186    1
   117   198   197    1
   118   198   200    1
   119   117   115   ar
   120   117   119   ar
   121   205   206    1
   122   115   114   ar
   123   173   172    1
   124   172   169    1
   125   135   133   ar
   126   135   137   ar
   127   206   207    1
   128   197   194    1
   129   171   170    2
   130   120   119    1
   131   119   118   ar
   132   109   110    1
   133   114   113    1
   134   114   116   ar
   135   133   132   ar
   136   113   110    1
   137   186   183    1
   138   164   162   ar
   139   164   166   ar
   140   196   195    2
   141   137   136   ar
   142   162   161   ar
   143   195   194    1
   144   118   116   ar
   145   124   123    2
   146   169   170    1
   147   169   168    1
   148   170   174   am
   149   110   111    1
   150   194   193    1
   151   168   158   am
   152   183   182    1
   153   183   184    1
   154   182   176   am
   155   111   112    2
   156   132   131    1
   157   132   134   ar
   158   167   166    1
   159   166   165   ar
   160   128   131    1
   161   128   127    1
   162   128   129    1
   163   161   160    1
   164   161   163   ar
   165   123   127   am
   166   123   122    1
   167   136   134   ar
   168   160   157    1
   169   174   175    1
   170   157   158    1
   171   157   156    1
   172   129   130    2
   173   158   159    2
   174   176   175    1
   175   176   177    2
   176   175   178    1
   177   122   125    1
   178   122   121    1
   179   150   149    2
   180   184   185    2
   181   165   163   ar
   182   125   126    1
   183   156   149   am
   184   149   148    1
   185   178   179    1
   186   178   180    1
   187   179   181    1
   188   148   151    1
   189   148   147    1
   190   151   152    1
   191   147   140   am
   192   152   153    1
   193   153   154    1
   194   141   140    2
   195   140   139    1
   196   154   155    1
   197   139   138    1
   198   139   142    1
   199   142   143    1
   200   143   144    1
   201   145   144   ar
   202   144   146   ar
