@<TRIPOS>MOLECULE
tmp/2cogB01.pdb
 109 105 0 0 0
SMALL
GASTEIGER

@<TRIPOS>ATOM
      1  N         -2.2060    1.6060   -2.4040 N.3    26  PHE26      -0.1241
      2  CA        -3.4410    2.3370   -2.1890 C.3    26  PHE26       0.1605
      3  C         -4.6830    1.5120   -1.8920 C.2    26  PHE26       0.2264
      4  O         -5.0040    0.5780   -2.6150 O.2    26  PHE26      -0.2867
      5  CB        -3.7470    3.2320   -3.3830 C.3    26  PHE26       0.0534
      6  CG        -4.9360    4.1190   -3.1640 C.ar   26  PHE26      -0.0203
      7  CD1       -4.8210    5.2720   -2.4040 C.ar   26  PHE26      -0.0042
      8  CD2       -6.1830    3.7760   -3.6780 C.ar   26  PHE26      -0.0042
      9  CE1       -5.9270    6.0720   -2.1550 C.ar   26  PHE26      -0.0003
     10  CE2       -7.2980    4.5730   -3.4340 C.ar   26  PHE26      -0.0003
     11  CZ        -7.1710    5.7210   -2.6730 C.ar   26  PHE26      -0.0000
     12  N        -19.7860    7.8670   -2.5680 N.3    72  PHE72      -0.1241
     13  CA       -18.6510    7.8130   -1.6640 C.3    72  PHE72       0.1605
     14  C        -17.9030    9.1330   -1.6680 C.2    72  PHE72       0.2264
     15  O        -18.1540   10.0000   -2.5030 O.2    72  PHE72      -0.2867
     16  CB       -17.7050    6.6860   -2.0890 C.3    72  PHE72       0.0534
     17  CG       -17.0470    6.9190   -3.4200 C.ar   72  PHE72      -0.0203
     18  CD1      -15.7590    7.4490   -3.4940 C.ar   72  PHE72      -0.0042
     19  CD2      -17.7180    6.6210   -4.6050 C.ar   72  PHE72      -0.0042
     20  CE1      -15.1410    7.6790   -4.7330 C.ar   72  PHE72      -0.0003
     21  CE2      -17.1110    6.8470   -5.8530 C.ar   72  PHE72      -0.0003
     22  CZ       -15.8180    7.3770   -5.9150 C.ar   72  PHE72      -0.0000
     23  N         -6.0840    7.6040    4.3700 N.3   138  TYR138     -0.1241
     24  CA        -7.2130    7.8540    3.4870 C.3   138  TYR138      0.1605
     25  C         -8.4900    7.5350    4.2380 C.2   138  TYR138      0.2264
     26  O         -8.5730    6.5240    4.9380 O.2   138  TYR138     -0.2867
     27  CB        -7.1130    6.9770    2.2380 C.3   138  TYR138      0.0534
     28  CG        -8.1260    7.2900    1.1610 C.ar  138  TYR138     -0.0201
     29  CD1       -8.0840    8.4950    0.4620 C.ar  138  TYR138     -0.0009
     30  CD2       -9.0970    6.3550    0.8000 C.ar  138  TYR138     -0.0009
     31  CE1       -8.9840    8.7600   -0.5810 C.ar  138  TYR138      0.0417
     32  CE2       -9.9920    6.6040   -0.2330 C.ar  138  TYR138      0.0417
     33  CZ        -9.9310    7.8050   -0.9210 C.ar  138  TYR138      0.1957
     34  OH       -10.8110    8.0420   -1.9530 O.3   138  TYR138     -0.2866
     35  N        -12.5440    6.9280    3.7860 N.3   140  ARG140     -0.1245
     36  CA       -13.5610    6.6020    2.8020 C.3   140  ARG140      0.1563
     37  C        -14.9980    6.5520    3.3280 C.2   140  ARG140      0.2260
     38  O        -15.4900    5.4950    3.7180 O.2   140  ARG140     -0.2867
     39  CB       -13.2010    5.2670    2.1210 C.3   140  ARG140      0.0307
     40  CG       -14.2780    4.6770    1.2150 C.3   140  ARG140      0.0489
     41  CD       -14.8180    5.6950    0.2150 C.3   140  ARG140      0.2205
     42  NE       -13.8110    6.1740   -0.7320 N.pl3 140  ARG140     -0.0865
     43  CZ       -13.4400    5.5240   -1.8300 C.cat 140  ARG140      0.5346
     44  NH1      -13.9890    4.3610   -2.1250 N.pl3 140  ARG140      0.1354
     45  NH2      -12.5300    6.0420   -2.6430 N.pl3 140  ARG140      0.1354
     46  N         -0.9220    6.9440   -5.0790 N.3   170  TYR170     -0.1241
     47  CA        -2.0640    6.2960   -5.7150 C.3   170  TYR170      0.1605
     48  C         -1.6020    5.1650   -6.6310 C.2   170  TYR170      0.2264
     49  O         -2.3150    4.1750   -6.8170 O.2   170  TYR170     -0.2867
     50  CB        -2.8940    7.3080   -6.5180 C.3   170  TYR170      0.0534
     51  CG        -4.2220    6.7500   -6.9970 C.ar  170  TYR170     -0.0201
     52  CD1       -5.0810    6.0970   -6.1140 C.ar  170  TYR170     -0.0009
     53  CD2       -4.6140    6.8580   -8.3330 C.ar  170  TYR170     -0.0009
     54  CE1       -6.2940    5.5590   -6.5430 C.ar  170  TYR170      0.0417
     55  CE2       -5.8300    6.3200   -8.7780 C.ar  170  TYR170      0.0417
     56  CZ        -6.6650    5.6690   -7.8740 C.ar  170  TYR170      0.1957
     57  OH        -7.8560    5.1070   -8.2920 O.3   170  TYR170     -0.2866
     58  N        -19.8660   12.1260   -6.7470 N.3   195  LYS195     -0.1245
     59  CA       -19.0770   10.9290   -6.5060 C.3   195  LYS195      0.1561
     60  C        -20.0070    9.7390   -6.2910 C.2   195  LYS195      0.2260
     61  O        -19.9590    9.0690   -5.2670 O.2   195  LYS195     -0.2867
     62  CB       -18.1500   11.1350   -5.3050 C.3   195  LYS195      0.0271
     63  CG       -16.6680   11.0330   -5.6580 C.3   195  LYS195      0.0035
     64  CD       -15.7770   11.6910   -4.6100 C.3   195  LYS195      0.0206
     65  CE       -14.3130   11.3100   -4.8030 C.3   195  LYS195      0.1093
     66  NZ       -13.9620   11.6640   -6.1690 N.3   195  LYS195     -0.1314
     67  N        -18.2650    5.1570  -11.9700 N.3   200  TYR200     -0.1241
     68  CA       -17.0000    4.4310  -12.0180 C.3   200  TYR200      0.1605
     69  C        -17.0570    3.0160  -12.5940 C.2   200  TYR200      0.2264
     70  O        -16.1630    2.6180  -13.3260 O.2   200  TYR200     -0.2867
     71  CB       -16.3660    4.4200  -10.6160 C.3   200  TYR200      0.0534
     72  CG       -16.2980    5.8110  -10.0420 C.ar  200  TYR200     -0.0201
     73  CD1      -17.4430    6.4230   -9.5290 C.ar  200  TYR200     -0.0009
     74  CD2      -15.1400    6.5800  -10.1600 C.ar  200  TYR200     -0.0009
     75  CE1      -17.4450    7.7630   -9.1680 C.ar  200  TYR200      0.0417
     76  CE2      -15.1340    7.9290   -9.7990 C.ar  200  TYR200      0.0417
     77  CZ       -16.2920    8.5100   -9.3130 C.ar  200  TYR200      0.1957
     78  OH       -16.3270    9.8440   -9.0200 O.3   200  TYR200     -0.2866
     79  N         -9.3550    9.2550  -12.6800 N.3   233  THR233     -0.1203
     80  CA       -10.2680    9.6980  -11.6320 C.3   233  THR233      0.1994
     81  C         -9.7590   10.9950  -11.0180 C.2   233  THR233      0.2617
     82  O        -10.0690   11.3050   -9.8670 O.2   233  THR233     -0.2717
     83  CB       -10.4070    8.6540  -10.4970 C.3   233  THR233      0.1784
     84  OG1       -9.1070    8.2510  -10.0500 O.3   233  THR233     -0.2211
     85  CG2      -11.1890    7.4440  -10.9750 C.3   233  THR233      0.0376
     86  N         -8.9770   11.7400  -11.7960 N.am  234  MET234     -0.1979
     87  CA        -8.3990   13.0090  -11.3560 C.3   234  MET234      0.1605
     88  C         -8.7090   14.1460  -12.3210 C.2   234  MET234      0.2287
     89  O         -8.8540   13.9370  -13.5270 O.2   234  MET234     -0.2864
     90  CB        -6.8810   12.8860  -11.2350 C.3   234  MET234      0.0413
     91  CG        -6.4100   11.7880  -10.3070 C.3   234  MET234      0.0598
     92  SD        -4.6140   11.6050  -10.3910 S.3   234  MET234     -0.1393
     93  CE        -4.4400   10.7840  -11.9820 C.3   234  MET234      0.0692
     94  N         -5.9630   15.2610   -7.4430 N.3   305  GLY305     -0.1210
     95  CA        -7.0150   14.6160   -6.6810 C.3   305  GLY305      0.1956
     96  C         -6.4730   14.1970   -5.3300 C.2   305  GLY305      0.2613
     97  O         -5.2640   14.0820   -5.1590 O.2   305  GLY305     -0.2717
     98  N         -7.3520   13.9460   -4.3720 N.am  306  THR306     -0.1938
     99  CA        -6.9120   13.5610   -3.0360 C.3   306  THR306      0.2028
    100  C         -5.8730   12.4340   -3.0200 C.2   306  THR306      0.2642
    101  O         -4.8990   12.5000   -2.2690 O.2   306  THR306     -0.2714
    102  CB        -8.1280   13.1870   -2.1540 C.3   306  THR306      0.1808
    103  OG1       -8.9470   14.3490   -1.9750 O.3   306  THR306     -0.2208
    104  CG2       -7.6830   12.6920   -0.7960 C.3   306  THR306      0.0379
    105  N         -6.0820   11.4180   -3.8540 N.am  307  ALA307     -0.1977
    106  CA        -5.1830   10.2710   -3.9470 C.3   307  ALA307      0.1597
    107  C         -3.8130   10.6470   -4.4930 C.2   307  ALA307      0.2287
    108  O         -2.8040   10.0620   -4.1100 O.2   307  ALA307     -0.2864
    109  CB        -5.8050    9.1910   -4.8260 C.3   307  ALA307      0.0319
@<TRIPOS>BOND
     1    89    88    2
     2    70    69    2
     3    79    80    1
     4    69    68    1
     5    88    87    1
     6    68    67    1
     7    68    71    1
     8    93    92    1
     9    86    87    1
    10    86    81   am
    11    80    81    1
    12    80    83    1
    13    87    90    1
    14    90    91    1
    15    81    82    2
    16    85    83    1
    17    71    72    1
    18    83    84    1
    19    92    91    1
    20    74    72   ar
    21    74    76   ar
    22    72    73   ar
    23    76    77   ar
    24    73    75   ar
    25    77    75   ar
    26    77    78    1
    27    55    53   ar
    28    55    56   ar
    29    53    51   ar
    30    57    56    1
    31    56    54   ar
    32    94    95    1
    33    51    50    1
    34    51    52   ar
    35    49    48    2
    36    58    59    1
    37    95    96    1
    38    48    47    1
    39    54    52   ar
    40    50    47    1
    41    59    60    1
    42    59    62    1
    43    60    61    2
    44    66    65    1
    45    22    21   ar
    46    22    20   ar
    47    21    19   ar
    48    47    46    1
    49    63    62    1
    50    63    64    1
    51    96    97    2
    52    96    98   am
    53   109   106    1
    54    65    64    1
    55    20    18   ar
    56    19    17   ar
    57   107   108    2
    58   107   106    1
    59    98    99    1
    60   106   105    1
    61   105   100   am
    62     8    10   ar
    63     8     6   ar
    64    18    17   ar
    65    10    11   ar
    66    17    16    1
    67     5     6    1
    68     5     2    1
    69     6     7   ar
    70    99   100    1
    71    99   102    1
    72   100   101    2
    73    11     9   ar
    74    45    43    1
    75     4     3    2
    76    12    13    1
    77    15    14    2
    78     1     2    1
    79     7     9   ar
    80     2     3    1
    81   102   103    1
    82   102   104    1
    83    44    43    1
    84    16    13    1
    85    34    33    1
    86    43    42    2
    87    14    13    1
    88    33    31   ar
    89    33    32   ar
    90    42    41    1
    91    31    29   ar
    92    32    30   ar
    93    41    40    1
    94    29    28   ar
    95    30    28   ar
    96    28    27    1
    97    40    39    1
    98    39    36    1
    99    27    24    1
   100    36    37    1
   101    36    35    1
   102    37    38    2
   103    24    25    1
   104    24    23    1
   105    25    26    2
