@<TRIPOS>MOLECULE
tmp/2coiB01.pdb
 128 122 0 0 0
SMALL
GASTEIGER

@<TRIPOS>ATOM
      1  N         -2.2530    1.7200   -2.5710 N.3    25  PHE25      -0.1241
      2  CA        -3.4890    2.4610   -2.3430 C.3    25  PHE25       0.1605
      3  C         -4.7420    1.6510   -2.0370 C.2    25  PHE25       0.2264
      4  O         -5.1590    0.8030   -2.8240 O.2    25  PHE25      -0.2867
      5  CB        -3.7990    3.3720   -3.5270 C.3    25  PHE25       0.0534
      6  CG        -4.9820    4.2650   -3.2930 C.ar   25  PHE25      -0.0203
      7  CD1       -4.8420    5.4450   -2.5720 C.ar   25  PHE25      -0.0042
      8  CD2       -6.2420    3.9060   -3.7530 C.ar   25  PHE25      -0.0042
      9  CE1       -5.9390    6.2570   -2.3100 C.ar   25  PHE25      -0.0003
     10  CE2       -7.3490    4.7110   -3.4960 C.ar   25  PHE25      -0.0003
     11  CZ        -7.1970    5.8900   -2.7730 C.ar   25  PHE25      -0.0000
     12  N        -19.7940    8.2140   -2.7060 N.3    71  PHE71      -0.1241
     13  CA       -18.6600    8.0830   -1.8040 C.3    71  PHE71       0.1605
     14  C        -17.8330    9.3570   -1.7660 C.2    71  PHE71       0.2264
     15  O        -18.0260   10.2470   -2.5880 O.2    71  PHE71      -0.2867
     16  CB       -17.7820    6.9040   -2.2380 C.3    71  PHE71       0.0534
     17  CG       -17.0040    7.1460   -3.5130 C.ar   71  PHE71      -0.0203
     18  CD1      -15.6920    7.6240   -3.4660 C.ar   71  PHE71      -0.0042
     19  CD2      -17.5780    6.8820   -4.7590 C.ar   71  PHE71      -0.0042
     20  CE1      -14.9570    7.8330   -4.6520 C.ar   71  PHE71      -0.0003
     21  CE2      -16.8580    7.0850   -5.9420 C.ar   71  PHE71      -0.0003
     22  CZ       -15.5420    7.5610   -5.8900 C.ar   71  PHE71      -0.0000
     23  N        -13.6800   11.0980   -0.5440 N.3    73  GLY73      -0.1225
     24  CA       -12.2770   10.7910   -0.3520 C.3    73  GLY73       0.1811
     25  C        -11.5260   11.9900    0.1780 C.2    73  GLY73       0.2280
     26  O        -11.5370   13.0450   -0.4310 O.2    73  GLY73      -0.2866
     27  N         -5.9940    7.6390    4.3350 N.3   137  TYR137     -0.1241
     28  CA        -7.1060    7.9070    3.4370 C.3   137  TYR137      0.1605
     29  C         -8.4130    7.5940    4.1540 C.2   137  TYR137      0.2264
     30  O         -8.5370    6.5710    4.8180 O.2   137  TYR137     -0.2867
     31  CB        -6.9820    7.0510    2.1720 C.3   137  TYR137      0.0534
     32  CG        -8.0100    7.3660    1.1040 C.ar  137  TYR137     -0.0201
     33  CD1       -7.9510    8.5560    0.3710 C.ar  137  TYR137     -0.0009
     34  CD2       -9.0220    6.4590    0.8010 C.ar  137  TYR137     -0.0009
     35  CE1       -8.8840    8.8320   -0.6510 C.ar  137  TYR137      0.0417
     36  CE2       -9.9500    6.7210   -0.2110 C.ar  137  TYR137      0.0417
     37  CZ        -9.8750    7.9070   -0.9350 C.ar  137  TYR137      0.1957
     38  OH       -10.7820    8.1380   -1.9480 O.3   137  TYR137     -0.2866
     39  N        -12.4840    7.0400    3.6810 N.3   139  ARG139     -0.1245
     40  CA       -13.5030    6.7240    2.6950 C.3   139  ARG139      0.1563
     41  C        -14.9480    6.6600    3.1950 C.2   139  ARG139      0.2260
     42  O        -15.4450    5.5950    3.5510 O.2   139  ARG139     -0.2867
     43  CB       -13.1280    5.4100    1.9780 C.3   139  ARG139      0.0307
     44  CG       -14.1850    4.8440    1.0350 C.3   139  ARG139      0.0489
     45  CD       -14.6780    5.8660    0.0330 C.3   139  ARG139      0.2205
     46  NE       -13.6630    6.2540   -0.9470 N.pl3 139  ARG139     -0.0865
     47  CZ       -13.4020    5.5820   -2.0630 C.cat 139  ARG139      0.5346
     48  NH1      -14.0810    4.4800   -2.3550 N.pl3 139  ARG139      0.1354
     49  NH2      -12.4580    6.0110   -2.8900 N.pl3 139  ARG139      0.1354
     50  N          0.4170    6.9120   -5.3990 N.3   169  TYR169     -0.1241
     51  CA        -0.6550    6.3880   -6.2490 C.3   169  TYR169      0.1605
     52  C         -0.1030    5.6450   -7.4790 C.2   169  TYR169      0.2264
     53  O         -0.5120    5.9850   -8.6110 O.2   169  TYR169     -0.2867
     54  CB        -1.5600    7.5440   -6.6950 C.3   169  TYR169      0.0534
     55  CG        -2.9460    7.1310   -7.1510 C.ar  169  TYR169     -0.0201
     56  CD1       -3.8380    6.5150   -6.2680 C.ar  169  TYR169     -0.0009
     57  CD2       -3.3720    7.3690   -8.4610 C.ar  169  TYR169     -0.0009
     58  CE1       -5.1220    6.1450   -6.6790 C.ar  169  TYR169      0.0417
     59  CE2       -4.6520    7.0030   -8.8820 C.ar  169  TYR169      0.0417
     60  CZ        -5.5170    6.3940   -7.9850 C.ar  169  TYR169      0.1957
     61  OH        -6.7770    6.0370   -8.3930 O.3   169  TYR169     -0.2866
     62  N        -19.7610   12.2660   -6.9500 N.3   193  LYS193     -0.1245
     63  CA       -18.9940   11.0620   -6.6850 C.3   193  LYS193      0.1561
     64  C        -19.9400    9.8900   -6.4610 C.2   193  LYS193      0.2260
     65  O        -19.8620    9.1950   -5.4510 O.2   193  LYS193     -0.2867
     66  CB       -18.0910   11.2610   -5.4700 C.3   193  LYS193      0.0271
     67  CG       -16.6090   11.1810   -5.7850 C.3   193  LYS193      0.0035
     68  CD       -15.7780   11.8260   -4.6850 C.3   193  LYS193      0.0206
     69  CE       -14.3020   11.5200   -4.8550 C.3   193  LYS193      0.1093
     70  NZ       -13.9710   11.9550   -6.2070 N.3   193  LYS193     -0.1314
     71  N        -18.2780    5.3250  -12.1880 N.3   198  TYR198     -0.1241
     72  CA       -17.0230    4.5860  -12.2460 C.3   198  TYR198      0.1605
     73  C        -17.0890    3.1920  -12.8510 C.2   198  TYR198      0.2264
     74  O        -16.1690    2.7840  -13.5570 O.2   198  TYR198     -0.2867
     75  CB       -16.4040    4.5380  -10.8440 C.3   198  TYR198      0.0534
     76  CG       -16.3120    5.9210  -10.2530 C.ar  198  TYR198     -0.0201
     77  CD1      -17.4510    6.5520   -9.7540 C.ar  198  TYR198     -0.0009
     78  CD2      -15.1370    6.6650  -10.3510 C.ar  198  TYR198     -0.0009
     79  CE1      -17.4340    7.8810   -9.3940 C.ar  198  TYR198      0.0417
     80  CE2      -15.1090    8.0050   -9.9910 C.ar  198  TYR198      0.0417
     81  CZ       -16.2680    8.6050   -9.5230 C.ar  198  TYR198      0.1957
     82  OH       -16.2980    9.9450   -9.2620 O.3   198  TYR198     -0.2866
     83  N         -3.5400    5.4520  -17.4790 N.3   215  GLN215     -0.1245
     84  CA        -4.7590    6.2100  -17.2460 C.3   215  GLN215      0.1566
     85  C         -5.4370    6.5620  -18.5540 C.2   215  GLN215      0.2260
     86  O         -4.8210    6.5470  -19.6230 O.2   215  GLN215     -0.2867
     87  CB        -4.4540    7.5000  -16.4850 C.3   215  GLN215      0.0367
     88  CG        -3.7870    7.2880  -15.1450 C.3   215  GLN215      0.0905
     89  CD        -4.7200    6.6690  -14.1300 C.2   215  GLN215      0.2608
     90  OE1       -5.6780    5.9770  -14.4870 O.2   215  GLN215     -0.2717
     91  NE2       -4.4380    6.9000  -12.8510 N.am  215  GLN215     -0.0878
     92  N         -9.5240    9.6110  -13.1880 N.3   231  THR231     -0.1203
     93  CA       -10.5190   10.2340  -12.3260 C.3   231  THR231      0.1994
     94  C         -9.8330   11.3460  -11.5230 C.2   231  THR231      0.2617
     95  O         -9.9790   11.4390  -10.3050 O.2   231  THR231     -0.2717
     96  CB       -11.1690    9.2150  -11.3640 C.3   231  THR231      0.1784
     97  OG1      -10.1520    8.4410  -10.7280 O.3   231  THR231     -0.2211
     98  CG2      -12.0900    8.2890  -12.1150 C.3   231  THR231      0.0376
     99  N         -9.0590   12.1670  -12.2320 N.am  232  MET232     -0.1979
    100  CA        -8.3410   13.2980  -11.6510 C.3   232  MET232      0.1605
    101  C         -8.5520   14.5080  -12.5540 C.2   232  MET232      0.2287
    102  O         -8.5600   14.3890  -13.7780 O.2   232  MET232     -0.2864
    103  CB        -6.8430   13.0120  -11.5540 C.3   232  MET232      0.0413
    104  CG        -6.4640   11.9250  -10.5700 C.3   232  MET232      0.0598
    105  SD        -4.6660   11.7370  -10.4490 S.3   232  MET232     -0.1393
    106  CE        -4.3260   10.7780  -11.9380 C.3   232  MET232      0.0692
    107  N         -5.9190   15.3550   -7.5950 N.3   303  GLY303     -0.1210
    108  CA        -6.8970   14.6010   -6.8410 C.3   303  GLY303      0.1956
    109  C         -6.3210   14.2690   -5.4810 C.2   303  GLY303      0.2613
    110  O         -5.1150   14.3450   -5.2880 O.2   303  GLY303     -0.2717
    111  N         -7.1710   13.8810   -4.5400 N.am  304  THR304     -0.1938
    112  CA        -6.7010   13.5640   -3.1920 C.3   304  THR304      0.2028
    113  C         -5.6280   12.4690   -3.1070 C.2   304  THR304      0.2642
    114  O         -4.6810   12.5960   -2.3210 O.2   304  THR304     -0.2714
    115  CB        -7.8870   13.1920   -2.2970 C.3   304  THR304      0.1808
    116  OG1       -8.7350   14.3370   -2.1520 O.3   304  THR304     -0.2208
    117  CG2       -7.4150   12.7280   -0.9300 C.3   304  THR304      0.0379
    118  N         -5.7750   11.4110   -3.9080 N.am  305  ALA305     -0.1963
    119  CA        -4.8340   10.2850   -3.9180 C.3   305  ALA305      0.1728
    120  C         -3.4800   10.6990   -4.4740 C.2   305  ALA305      0.2616
    121  O         -2.4340   10.2740   -3.9950 O.2   305  ALA305     -0.2715
    122  CB        -5.4000    9.1310   -4.7440 C.3   305  ALA305      0.0334
    123  N         -3.5170   11.5210   -5.5110 N.am  306  CYS306     -0.1968
    124  CA        -2.3090   12.0280   -6.1320 C.3   306  CYS306      0.1712
    125  C         -2.5130   13.5240   -6.2430 C.2   306  CYS306      0.2296
    126  O         -3.0690   14.0190   -7.2290 O.2   306  CYS306     -0.2864
    127  CB        -2.1190   11.4450   -7.5260 C.3   306  CYS306      0.0983
    128  SG        -0.4620   11.7770   -8.1930 S.3   306  CYS306     -0.0798
@<TRIPOS>BOND
     1    86    85    2
     2    85    84    1
     3    83    84    1
     4    84    87    1
     5    87    88    1
     6    88    89    1
     7    90    89    2
     8    89    91   am
     9   102   101    2
    10    74    73    2
    11    92    93    1
    12    73    72    1
    13   101   100    1
    14    93    94    1
    15    93    96    1
    16    72    71    1
    17    72    75    1
    18    99   100    1
    19    99    94   am
    20    98    96    1
    21   106   105    1
    22   100   103    1
    23   103   104    1
    24    94    95    2
    25    96    97    1
    26    75    76    1
    27   104   105    1
    28    78    76   ar
    29    78    80   ar
    30    76    77   ar
    31    80    81   ar
    32    77    79   ar
    33    81    79   ar
    34    81    82    1
    35    59    57   ar
    36    59    60   ar
    37    53    52    2
    38    57    55   ar
    39    61    60    1
    40   128   127    1
    41    60    58   ar
    42   107   108    1
    43   127   124    1
    44    52    51    1
    45   126   125    2
    46    55    54    1
    47    55    56   ar
    48    62    63    1
    49   108   109    1
    50    54    51    1
    51    63    64    1
    52    63    66    1
    53    58    56   ar
    54    64    65    2
    55    51    50    1
    56   125   124    1
    57    70    69    1
    58   124   123    1
    59    21    22   ar
    60    21    19   ar
    61    22    20   ar
    62    67    66    1
    63    67    68    1
    64   123   120   am
    65   109   110    2
    66   109   111   am
    67    69    68    1
    68    19    17   ar
    69   122   119    1
    70    20    18   ar
    71   111   112    1
    72   120   121    2
    73   120   119    1
    74   119   118    1
    75   118   113   am
    76     8    10   ar
    77     8     6   ar
    78     5     6    1
    79     5     2    1
    80    17    18   ar
    81    17    16    1
    82    10    11   ar
    83     6     7   ar
    84   112   113    1
    85   112   115    1
    86   113   114    2
    87    49    47    1
    88     4     3    2
    89    11     9   ar
    90    12    13    1
    91    15    14    2
    92     7     9   ar
    93     1     2    1
    94    48    47    1
    95     2     3    1
    96   115   116    1
    97   115   117    1
    98    16    13    1
    99    47    46    2
   100    38    37    1
   101    13    14    1
   102    46    45    1
   103    37    35   ar
   104    37    36   ar
   105    35    33   ar
   106    23    24    1
   107    26    25    2
   108    24    25    1
   109    36    34   ar
   110    45    44    1
   111    33    32   ar
   112    34    32   ar
   113    44    43    1
   114    32    31    1
   115    43    40    1
   116    31    28    1
   117    40    41    1
   118    40    39    1
   119    41    42    2
   120    28    29    1
   121    28    27    1
   122    29    30    2
