@<TRIPOS>MOLECULE
tmp/2colA00.pdb
 89 83 0 0 0
SMALL
GASTEIGER

@<TRIPOS>ATOM
      1  N         -0.0080   34.4120   73.0290 N.3    35  ARG35      -0.1245
      2  CA         0.6260   35.3820   73.8870 C.3    35  ARG35       0.1563
      3  C         -0.3440   35.5120   75.0570 C.2    35  ARG35       0.2260
      4  O         -1.5500   35.2690   74.9220 O.2    35  ARG35      -0.2867
      5  CB         0.7810   36.7200   73.1660 C.3    35  ARG35       0.0307
      6  CG         1.7040   36.6920   71.9410 C.3    35  ARG35       0.0489
      7  CD         1.8940   38.0850   71.3390 C.3    35  ARG35       0.2205
      8  NE         2.7950   38.9340   72.1230 N.pl3  35  ARG35      -0.0865
      9  CZ         2.4490   40.0910   72.6950 C.cat  35  ARG35       0.5346
     10  NH1        1.2070   40.5620   72.5830 N.pl3  35  ARG35       0.1354
     11  NH2        3.3550   40.7850   73.3830 N.pl3  35  ARG35       0.1354
     12  N        -11.3300   42.7390   70.2580 N.3    52  LYS52      -0.1245
     13  CA       -10.8720   43.7590   69.3000 C.3    52  LYS52       0.1561
     14  C         -9.9240   43.3390   68.1620 C.2    52  LYS52       0.2260
     15  O         -9.0180   42.4960   68.3420 O.2    52  LYS52      -0.2867
     16  CB       -10.2090   44.9330   70.0390 C.3    52  LYS52       0.0271
     17  CG        -8.8850   44.6050   70.7120 C.3    52  LYS52       0.0035
     18  CD        -7.9280   45.7440   70.5310 C.3    52  LYS52       0.0206
     19  CE        -6.8840   45.7830   71.6190 C.3    52  LYS52       0.1093
     20  NZ        -7.5020   46.1970   72.9300 N.3    52  LYS52      -0.1314
     21  N         -6.9570   50.8860   67.8740 N.3    57  HIS57      -0.1226
     22  CA        -5.6390   51.1290   68.4540 C.3    57  HIS57       0.1752
     23  C         -5.6140   52.0730   69.6410 C.2    57  HIS57       0.2596
     24  O         -4.6320   52.8040   69.8220 O.2    57  HIS57      -0.2718
     25  CB        -4.7070   51.6800   67.3820 C.3    57  HIS57       0.0759
     26  CG        -3.9780   50.6190   66.6350 C.ar   57  HIS57       0.0818
     27  ND1       -4.1220   49.2790   66.9310 N.ar   57  HIS57      -0.2268
     28  CD2       -3.0820   50.6920   65.6220 C.ar   57  HIS57       0.1154
     29  CE1       -3.3450   48.5710   66.1300 C.ar   57  HIS57       0.1986
     30  NE2       -2.7020   49.4040   65.3250 N.ar   57  HIS57      -0.2212
     31  N         -6.6810   52.0500   70.4350 N.am   58  ALA58      -0.1966
     32  CA        -6.8080   52.9180   71.6060 C.3    58  ALA58       0.1728
     33  C         -6.4460   52.1080   72.8380 C.2    58  ALA58       0.2616
     34  O         -7.2560   51.3080   73.3110 O.2    58  ALA58      -0.2715
     35  CB        -8.2550   53.4470   71.7150 C.3    58  ALA58       0.0334
     36  N         -5.2280   52.3000   73.3450 N.am   59  LYS59      -0.1963
     37  CA        -4.7630   51.5600   74.5240 C.3    59  LYS59       0.1728
     38  C         -5.9270   51.3260   75.5060 C.2    59  LYS59       0.2616
     39  O         -6.7770   52.2050   75.6850 O.2    59  LYS59      -0.2715
     40  CB        -3.6370   52.3350   75.2400 C.3    59  LYS59       0.0311
     41  CG        -2.4580   52.8320   74.3660 C.3    59  LYS59       0.0038
     42  CD        -1.6910   51.7070   73.6210 C.3    59  LYS59       0.0206
     43  CE        -2.3840   51.2810   72.2930 C.3    59  LYS59       0.1093
     44  NZ        -1.5850   50.3130   71.4490 N.3    59  LYS59      -0.1314
     45  N         -5.9690   50.1460   76.1280 N.am   60  SER60      -0.1950
     46  CA        -7.0390   49.8250   77.0850 C.3    60  SER60       0.1924
     47  C         -6.8380   50.5290   78.4150 C.2    60  SER60       0.2314
     48  O         -5.9530   51.3830   78.5560 O.2    60  SER60      -0.2863
     49  CB        -7.1140   48.3120   77.3440 C.3    60  SER60       0.2116
     50  OG        -5.8720   47.7900   77.7750 O.3    60  SER60      -0.2180
     51  N         -4.8180   53.2720   80.2560 N.3    78  LYS78      -0.1245
     52  CA        -3.5100   53.0650   80.8750 C.3    78  LYS78       0.1561
     53  C         -2.5250   54.1900   80.5400 C.2    78  LYS78       0.2260
     54  O         -1.3120   53.9470   80.4120 O.2    78  LYS78      -0.2867
     55  CB        -2.9210   51.7010   80.4500 C.3    78  LYS78       0.0271
     56  CG        -2.9430   51.4310   78.9510 C.3    78  LYS78       0.0035
     57  CD        -2.6640   49.9560   78.6620 C.3    78  LYS78       0.0206
     58  CE        -1.1790   49.6400   78.7710 C.3    78  LYS78       0.1093
     59  NZ        -0.7770   48.5420   77.8520 N.3    78  LYS78      -0.1314
     60  N         -9.7910   42.9520   75.1750 N.3   181  ALA181     -0.1231
     61  CA        -8.6770   42.3360   74.4790 C.3   181  ALA181      0.1694
     62  C         -9.0730   41.0940   73.6800 C.2   181  ALA181      0.2592
     63  O        -10.1220   40.4720   73.9300 O.2   181  ALA181     -0.2718
     64  CB        -7.5970   41.9860   75.4650 C.3   181  ALA181      0.0304
     65  N         -8.2340   40.7520   72.7060 N.am  182  ASP182     -0.1974
     66  CA        -8.4460   39.5750   71.8580 C.3   182  ASP182      0.1709
     67  C         -7.2690   38.6390   72.1180 C.2   182  ASP182      0.2293
     68  O         -6.1810   39.1090   72.4610 O.2   182  ASP182     -0.2864
     69  CB        -8.4980   39.9710   70.3720 C.3   182  ASP182      0.1436
     70  CG        -7.2050   40.5860   69.8760 C.2   182  ASP182      0.3671
     71  OD1       -6.6640   41.4960   70.5420 O.co2 182  ASP182     -0.2456
     72  OD2       -6.7310   40.1650   68.8010 O.co2 182  ASP182     -0.2456
     73  N         -4.2930   37.0210   71.2280 N.3   184  ASP184     -0.1239
     74  CA        -3.2760   37.0890   70.1790 C.3   184  ASP184      0.1674
     75  C         -2.4970   35.7860   70.0540 C.2   184  ASP184      0.2266
     76  O         -1.8070   35.3830   70.9710 O.2   184  ASP184     -0.2867
     77  CB        -2.2720   38.2450   70.4110 C.3   184  ASP184      0.1410
     78  CG        -2.9260   39.6260   70.4000 C.2   184  ASP184      0.3668
     79  OD1       -4.0550   39.7600   69.8740 O.co2 184  ASP184     -0.2456
     80  OD2       -2.3000   40.5870   70.9170 O.co2 184  ASP184     -0.2456
     81  N          6.8010   41.7160   69.1100 N.3   295  GLU295     -0.1245
     82  CA         6.9880   42.0820   70.5060 C.3   295  GLU295      0.1567
     83  C          7.6970   40.9910   71.2940 C.2   295  GLU295      0.2260
     84  O          7.5080   39.8040   71.0320 O.2   295  GLU295     -0.2867
     85  CB         5.6190   42.3850   71.1230 C.3   295  GLU295      0.0388
     86  CG         4.9950   43.6890   70.6110 C.3   295  GLU295      0.1160
     87  CD         3.5630   43.8880   71.0670 C.2   295  GLU295      0.3649
     88  OE1        3.3110   43.8480   72.3010 O.co2 295  GLU295     -0.2457
     89  OE2        2.6870   44.0880   70.1790 O.co2 295  GLU295     -0.2457
@<TRIPOS>BOND
     1    30    28   ar
     2    30    29   ar
     3    28    26   ar
     4    29    27   ar
     5    26    27   ar
     6    26    25    1
     7    25    22    1
     8    21    22    1
     9    14    15    2
    10    14    13    1
    11    22    23    1
    12    72    70   ar
    13    81    82    1
    14    13    16    1
    15    13    12    1
    16    23    24    2
    17    23    31   am
    18    79    78   ar
    19    70    69    1
    20    70    71   ar
    21    16    17    1
    22    75    74    1
    23    75    76    2
    24    74    77    1
    25    74    73    1
    26    89    87   ar
    27    69    66    1
    28    78    77    1
    29    78    80   ar
    30    31    32    1
    31    82    85    1
    32    82    83    1
    33    18    17    1
    34    18    19    1
    35    86    87    1
    36    86    85    1
    37    84    83    2
    38    87    88   ar
    39     7     6    1
    40     7     8    1
    41    44    43    1
    42    32    35    1
    43    32    33    1
    44    19    20    1
    45    66    67    1
    46    66    65    1
    47     6     5    1
    48    67    68    2
    49     8     9    2
    50    43    42    1
    51    10     9    1
    52     9    11    1
    53    65    62   am
    54    33    34    2
    55    33    36   am
    56     1     2    1
    57     5     2    1
    58    36    37    1
    59    42    41    1
    60    62    63    2
    61    62    61    1
    62     2     3    1
    63    41    40    1
    64    61    60    1
    65    61    64    1
    66    37    40    1
    67    37    38    1
    68     4     3    2
    69    38    39    2
    70    38    45   am
    71    45    46    1
    72    46    49    1
    73    46    47    1
    74    49    50    1
    75    59    58    1
    76    47    48    2
    77    57    58    1
    78    57    56    1
    79    56    55    1
    80    51    52    1
    81    54    53    2
    82    55    52    1
    83    53    52    1
