@<TRIPOS>MOLECULE
tmp/2csgA01.pdb
 134 130 0 0 0
SMALL
GASTEIGER

@<TRIPOS>ATOM
      1  N         15.4050   60.9200   47.0210 N.3   125  PHE125     -0.1241
      2  CA        16.6580   60.7770   47.7880 C.3   125  PHE125      0.1605
      3  C         17.2800   59.3830   47.8270 C.2   125  PHE125      0.2264
      4  O         18.1630   59.1400   48.6500 O.2   125  PHE125     -0.2867
      5  CB        16.4460   61.2170   49.2410 C.3   125  PHE125      0.0534
      6  CG        15.8050   62.5510   49.3820 C.ar  125  PHE125     -0.0203
      7  CD1       14.4400   62.6470   49.6330 C.ar  125  PHE125     -0.0042
      8  CD2       16.5630   63.7180   49.2670 C.ar  125  PHE125     -0.0042
      9  CE1       13.8390   63.8870   49.7630 C.ar  125  PHE125     -0.0003
     10  CE2       15.9740   64.9590   49.3950 C.ar  125  PHE125     -0.0003
     11  CZ        14.6110   65.0430   49.6490 C.ar  125  PHE125     -0.0000
     12  N          6.2510   65.8150   55.9820 N.3   136  TYR136     -0.1241
     13  CA         5.9730   67.0440   55.2120 C.3   136  TYR136      0.1605
     14  C          4.4640   67.2070   55.0610 C.2   136  TYR136      0.2264
     15  O          3.8030   67.2770   56.1090 O.2   136  TYR136     -0.2867
     16  CB         6.6800   66.8970   53.8930 C.3   136  TYR136      0.0534
     17  CG         8.1700   66.8720   54.0730 C.ar  136  TYR136     -0.0201
     18  CD1        8.7440   66.2980   55.1980 C.ar  136  TYR136     -0.0009
     19  CD2        9.0120   67.4440   53.1180 C.ar  136  TYR136     -0.0009
     20  CE1       10.0900   66.2970   55.3690 C.ar  136  TYR136      0.0417
     21  CE2       10.3700   67.4400   53.2800 C.ar  136  TYR136      0.0417
     22  CZ        10.8940   66.8650   54.4050 C.ar  136  TYR136      0.1957
     23  OH        12.2420   66.8660   54.5600 O.3   136  TYR136     -0.2866
     24  N          8.4150   71.2730   57.1620 N.3   187  ARG187     -0.1245
     25  CA         9.1550   70.2510   57.8720 C.3   187  ARG187      0.1563
     26  C          8.7390   70.2760   59.3260 C.2   187  ARG187      0.2260
     27  O          8.9820   71.2480   60.0140 O.2   187  ARG187     -0.2867
     28  CB        10.6510   70.4980   57.7510 C.3   187  ARG187      0.0307
     29  CG        11.5070   69.4200   58.4160 C.3   187  ARG187      0.0489
     30  CD        12.9810   69.6090   58.1010 C.3   187  ARG187      0.2205
     31  NE        13.7150   70.1550   59.2380 N.pl3 187  ARG187     -0.0865
     32  CZ        14.7060   71.0400   59.1390 C.cat 187  ARG187      0.5346
     33  NH1       15.0630   71.5100   57.9580 N.pl3 187  ARG187      0.1354
     34  NH2       15.3340   71.4720   60.2210 N.pl3 187  ARG187      0.1354
     35  N         18.9920   64.2430   56.5500 N.3   198  LEU198     -0.1245
     36  CA        19.0180   64.2780   55.0880 C.3   198  LEU198      0.1561
     37  C         20.4670   64.3280   54.6840 C.2   198  LEU198      0.2260
     38  O         21.2280   65.1340   55.2210 O.2   198  LEU198     -0.2867
     39  CB        18.3430   65.5430   54.5870 C.3   198  LEU198      0.0270
     40  CG        17.7520   65.5150   53.1900 C.3   198  LEU198      0.0019
     41  CD1       16.7070   64.4350   53.1600 C.3   198  LEU198      0.0001
     42  CD2       17.1260   66.8730   52.8290 C.3   198  LEU198      0.0001
     43  N         23.5250   66.7820   49.5080 N.3   201  HIS201     -0.1241
     44  CA        23.1790   66.7840   48.1080 C.3   201  HIS201      0.1621
     45  C         23.1350   68.2500   47.6790 C.2   201  HIS201      0.2264
     46  O         23.3710   69.1450   48.4940 O.2   201  HIS201     -0.2867
     47  CB        21.7940   66.2120   47.9520 C.3   201  HIS201      0.0745
     48  CG        20.7700   66.9860   48.7030 C.ar  201  HIS201      0.0817
     49  ND1       20.7210   66.9990   50.0800 N.ar  201  HIS201     -0.2268
     50  CD2       19.7910   67.8170   48.2830 C.ar  201  HIS201      0.1154
     51  CE1       19.7340   67.7830   50.4760 C.ar  201  HIS201      0.1986
     52  NE2       19.1520   68.2910   49.4060 N.ar  201  HIS201     -0.2212
     53  N         20.3920   70.6980   45.0430 N.3   203  ASP203     -0.1239
     54  CA        19.1390   70.5930   44.3040 C.3   203  ASP203      0.1674
     55  C         19.2670   71.1790   42.8800 C.2   203  ASP203      0.2266
     56  O         20.3850   71.3510   42.3480 O.2   203  ASP203     -0.2867
     57  CB        17.9690   71.2000   45.1040 C.3   203  ASP203      0.1410
     58  CG        17.8110   70.5660   46.5080 C.2   203  ASP203      0.3668
     59  OD1       17.0780   69.5540   46.6540 O.co2 203  ASP203     -0.2456
     60  OD2       18.4090   71.0970   47.4750 O.co2 203  ASP203     -0.2456
     61  N         17.6360   78.9770   47.6930 N.3   259  GLN259     -0.1245
     62  CA        16.6330   78.2920   48.4700 C.3   259  GLN259      0.1566
     63  C         16.7600   78.8330   49.8890 C.2   259  GLN259      0.2260
     64  O         17.8290   79.3340   50.3010 O.2   259  GLN259     -0.2867
     65  CB        16.8890   76.7880   48.4890 C.3   259  GLN259      0.0367
     66  CG        16.8320   76.0990   47.1580 C.3   259  GLN259      0.0905
     67  CD        17.4230   74.7220   47.2380 C.2   259  GLN259      0.2608
     68  OE1       18.6170   74.5320   47.0240 O.2   259  GLN259     -0.2717
     69  NE2       16.6030   73.7520   47.5870 N.am  259  GLN259     -0.0878
     70  N         14.4300   78.5620   54.0730 N.3   261  TRP261     -0.1241
     71  CA        13.1720   78.4550   54.8030 C.3   261  TRP261      0.1605
     72  C         13.0590   79.4740   55.9270 C.2   261  TRP261      0.2264
     73  O         14.0430   80.1270   56.2890 O.2   261  TRP261     -0.2867
     74  CB        12.9150   77.0300   55.3220 C.3   261  TRP261      0.0550
     75  CG        14.1050   76.2740   55.8530 C.ar  261  TRP261      0.0003
     76  CD1       14.7290   75.2190   55.2550 C.ar  261  TRP261      0.0946
     77  CD2       14.7770   76.4810   57.1010 C.ar  261  TRP261      0.0152
     78  NE1       15.7600   74.7690   56.0410 N.ar  261  TRP261     -0.2442
     79  CE2       15.8100   75.5190   57.1830 C.ar  261  TRP261      0.0810
     80  CE3       14.6120   77.3870   58.1580 C.ar  261  TRP261      0.0012
     81  CZ2       16.6790   75.4320   58.2840 C.ar  261  TRP261      0.0191
     82  CZ3       15.4850   77.3120   59.2600 C.ar  261  TRP261      0.0001
     83  CH2       16.5070   76.3410   59.3070 C.ar  261  TRP261      0.0015
     84  N         20.0810   72.0310   59.9370 N.3   274  LEU274     -0.1245
     85  CA        20.6100   72.3050   58.5960 C.3   274  LEU274      0.1561
     86  C         22.1120   72.6210   58.5730 C.2   274  LEU274      0.2260
     87  O         22.5940   73.5090   59.2850 O.2   274  LEU274     -0.2867
     88  CB        19.8560   73.4670   57.9660 C.3   274  LEU274      0.0270
     89  CG        20.2110   73.7910   56.5260 C.3   274  LEU274      0.0019
     90  CD1       19.8300   72.6350   55.6090 C.3   274  LEU274      0.0001
     91  CD2       19.4830   75.0250   56.1050 C.3   274  LEU274      0.0001
     92  N         20.3450   79.7600   51.1570 N.3   337  TRP337     -0.1241
     93  CA        21.5580   79.2830   50.4830 C.3   337  TRP337      0.1605
     94  C         21.4390   79.3750   48.9520 C.2   337  TRP337      0.2264
     95  O         20.3440   79.1950   48.3700 O.2   337  TRP337     -0.2867
     96  CB        21.9940   77.8810   50.9630 C.3   337  TRP337      0.0550
     97  CG        21.0290   76.7480   50.6130 C.ar  337  TRP337      0.0003
     98  CD1       21.0940   75.9190   49.5310 C.ar  337  TRP337      0.0946
     99  CD2       19.8670   76.3390   51.3560 C.ar  337  TRP337      0.0152
    100  NE1       20.0470   75.0330   49.5440 N.ar  337  TRP337     -0.2442
    101  CE2       19.2780   75.2680   50.6520 C.ar  337  TRP337      0.0810
    102  CE3       19.2610   76.7840   52.5390 C.ar  337  TRP337      0.0012
    103  CZ2       18.1170   74.6300   51.0960 C.ar  337  TRP337      0.0191
    104  CZ3       18.1090   76.1550   52.9680 C.ar  337  TRP337      0.0001
    105  CH2       17.5510   75.0880   52.2580 C.ar  337  TRP337      0.0015
    106  N         24.0870   70.9400   50.7620 N.3   343  HIS343     -0.1241
    107  CA        23.4550   70.9950   52.0670 C.3   343  HIS343      0.1621
    108  C         22.8350   69.6450   52.5240 C.2   343  HIS343      0.2264
    109  O         22.5650   68.7300   51.7160 O.2   343  HIS343     -0.2867
    110  CB        22.3940   72.0740   52.0590 C.3   343  HIS343      0.0745
    111  CG        21.2860   71.7930   51.1070 C.ar  343  HIS343      0.0817
    112  ND1       21.3580   72.1270   49.7740 N.ar  343  HIS343     -0.2268
    113  CD2       20.0960   71.1670   51.2790 C.ar  343  HIS343      0.1154
    114  CE1       20.2450   71.7420   49.1720 C.ar  343  HIS343      0.1986
    115  NE2       19.4600   71.1610   50.0630 N.ar  343  HIS343     -0.2212
    116  N         20.7490   67.8220   56.4250 N.3   345  VAL345     -0.1245
    117  CA        20.1220   68.0040   57.7370 C.3   345  VAL345      0.1561
    118  C         20.7080   66.9250   58.6290 C.2   345  VAL345      0.2260
    119  O         20.5120   65.7400   58.3810 O.2   345  VAL345     -0.2867
    120  CB        18.5810   67.8660   57.6670 C.3   345  VAL345      0.0252
    121  CG1       17.9610   67.9920   59.0270 C.3   345  VAL345      0.0019
    122  CG2       17.9930   68.9000   56.7480 C.3   345  VAL345      0.0019
    123  N          9.1680   75.9790   53.8190 N.3   359  TYR359     -0.1241
    124  CA        10.0490   76.2110   52.6850 C.3   359  TYR359      0.1605
    125  C          9.5570   77.3820   51.8170 C.2   359  TYR359      0.2264
    126  O          8.4650   77.3250   51.2370 O.2   359  TYR359     -0.2867
    127  CB        10.2340   74.9580   51.8400 C.3   359  TYR359      0.0534
    128  CG        10.8750   73.7820   52.5490 C.ar  359  TYR359     -0.0201
    129  CD1       10.1630   72.5980   52.7560 C.ar  359  TYR359     -0.0009
    130  CD2       12.1840   73.8420   52.9920 C.ar  359  TYR359     -0.0009
    131  CE1       10.7390   71.5080   53.3920 C.ar  359  TYR359      0.0417
    132  CE2       12.7730   72.7620   53.6270 C.ar  359  TYR359      0.0417
    133  CZ        12.0480   71.5910   53.8210 C.ar  359  TYR359      0.1957
    134  OH        12.6320   70.5110   54.4470 O.3   359  TYR359     -0.2866
@<TRIPOS>BOND
     1    56    55    2
     2    55    54    1
     3    54    53    1
     4    54    57    1
     5    57    58    1
     6    58    59   ar
     7    58    60   ar
     8     1     2    1
     9    68    67    2
    10    66    67    1
    11    66    65    1
    12    67    69   am
    13    45    44    1
    14    45    46    2
    15    61    62    1
    16     2     3    1
    17     2     5    1
    18     3     4    2
    19    47    44    1
    20    47    48    1
    21    44    43    1
    22    50    48   ar
    23    50    52   ar
    24    95    94    2
    25    62    65    1
    26    62    63    1
    27    48    49   ar
    28    94    93    1
    29   114   112   ar
    30   114   115   ar
    31     5     6    1
    32     8     6   ar
    33     8    10   ar
    34     6     7   ar
    35    10    11   ar
    36    52    51   ar
    37    98   100   ar
    38    98    97   ar
    39   100   101   ar
    40     7     9   ar
    41    11     9   ar
    42   112   111   ar
    43    63    64    2
    44   115   113   ar
    45    49    51   ar
    46    93    96    1
    47    93    92    1
    48    97    96    1
    49    97    99   ar
    50   101   103   ar
    51   101    99   ar
    52   106   107    1
    53   103   105   ar
    54   111   113   ar
    55   111   110    1
    56   126   125    2
    57    99   102   ar
    58   109   108    2
    59   125   124    1
    60   127   128    1
    61   127   124    1
    62   110   107    1
    63   107   108    1
    64   105   104   ar
    65   102   104   ar
    66   128   129   ar
    67   128   130   ar
    68   124   123    1
    69   129   131   ar
    70    42    40    1
    71   130   132   ar
    72    19    21   ar
    73    19    17   ar
    74    41    40    1
    75    40    39    1
    76    21    22   ar
    77   131   133   ar
    78   132   133   ar
    79   133   134    1
    80    16    17    1
    81    16    13    1
    82    70    71    1
    83    17    18   ar
    84    22    23    1
    85    22    20   ar
    86    39    36    1
    87    37    36    1
    88    37    38    2
    89    71    74    1
    90    71    72    1
    91    14    13    1
    92    14    15    2
    93    36    35    1
    94    18    20   ar
    95    13    12    1
    96    76    75   ar
    97    76    78   ar
    98    74    75    1
    99    90    89    1
   100    75    77   ar
   101    72    73    2
   102    78    79   ar
   103    91    89    1
   104   116   117    1
   105    89    88    1
   106   122   120    1
   107    77    79   ar
   108    77    80   ar
   109    24    25    1
   110    79    81   ar
   111   120   117    1
   112   120   121    1
   113   117   118    1
   114    28    25    1
   115    28    29    1
   116    25    26    1
   117    33    32    1
   118    88    85    1
   119    30    29    1
   120    30    31    1
   121    80    82   ar
   122    81    83   ar
   123   119   118    2
   124    86    85    1
   125    86    87    2
   126    85    84    1
   127    32    31    2
   128    32    34    1
   129    82    83   ar
   130    26    27    2
