@<TRIPOS>MOLECULE
tmp/2csgA00.pdb
 166 161 0 0 0
SMALL
GASTEIGER

@<TRIPOS>ATOM
      1  N         12.9070   60.8520   45.8100 N.3   124  PHE124     -0.1227
      2  CA        13.9090   61.7980   45.2820 C.3   124  PHE124      0.1736
      3  C         15.3280   61.5710   45.8570 C.2   124  PHE124      0.2595
      4  O         16.3240   61.9540   45.2380 O.2   124  PHE124     -0.2718
      5  CB        13.4090   63.2360   45.5690 C.3   124  PHE124      0.0547
      6  CG        14.1400   64.3300   44.8240 C.ar  124  PHE124     -0.0202
      7  CD1       14.7910   65.3440   45.5280 C.ar  124  PHE124     -0.0042
      8  CD2       14.1520   64.3730   43.4300 C.ar  124  PHE124     -0.0042
      9  CE1       15.4630   66.3700   44.8670 C.ar  124  PHE124     -0.0003
     10  CE2       14.8310   65.4000   42.7520 C.ar  124  PHE124     -0.0003
     11  CZ        15.4900   66.3970   43.4780 C.ar  124  PHE124     -0.0000
     12  N         15.4050   60.9200   47.0210 N.am  125  PHE125     -0.1976
     13  CA        16.6580   60.7770   47.7880 C.3   125  PHE125      0.1639
     14  C         17.2800   59.3830   47.8270 C.2   125  PHE125      0.2290
     15  O         18.1630   59.1400   48.6500 O.2   125  PHE125     -0.2864
     16  CB        16.4460   61.2170   49.2410 C.3   125  PHE125      0.0560
     17  CG        15.8050   62.5510   49.3820 C.ar  125  PHE125     -0.0200
     18  CD1       14.4400   62.6470   49.6330 C.ar  125  PHE125     -0.0042
     19  CD2       16.5630   63.7180   49.2670 C.ar  125  PHE125     -0.0042
     20  CE1       13.8390   63.8870   49.7630 C.ar  125  PHE125     -0.0003
     21  CE2       15.9740   64.9590   49.3950 C.ar  125  PHE125     -0.0003
     22  CZ        14.6110   65.0430   49.6490 C.ar  125  PHE125     -0.0000
     23  N          6.2510   65.8150   55.9820 N.3   136  TYR136     -0.1241
     24  CA         5.9730   67.0440   55.2120 C.3   136  TYR136      0.1605
     25  C          4.4640   67.2070   55.0610 C.2   136  TYR136      0.2264
     26  O          3.8030   67.2770   56.1090 O.2   136  TYR136     -0.2867
     27  CB         6.6800   66.8970   53.8930 C.3   136  TYR136      0.0534
     28  CG         8.1700   66.8720   54.0730 C.ar  136  TYR136     -0.0201
     29  CD1        8.7440   66.2980   55.1980 C.ar  136  TYR136     -0.0009
     30  CD2        9.0120   67.4440   53.1180 C.ar  136  TYR136     -0.0009
     31  CE1       10.0900   66.2970   55.3690 C.ar  136  TYR136      0.0417
     32  CE2       10.3700   67.4400   53.2800 C.ar  136  TYR136      0.0417
     33  CZ        10.8940   66.8650   54.4050 C.ar  136  TYR136      0.1957
     34  OH        12.2420   66.8660   54.5600 O.3   136  TYR136     -0.2866
     35  N          6.3560   80.5130   44.9660 N.3   182  TYR182     -0.1241
     36  CA         6.7070   79.1090   44.7220 C.3   182  TYR182      0.1605
     37  C          6.2540   78.2500   45.9060 C.2   182  TYR182      0.2264
     38  O          6.9820   78.1020   46.8940 O.2   182  TYR182     -0.2867
     39  CB         8.2130   78.9410   44.5020 C.3   182  TYR182      0.0534
     40  CG         8.6000   77.5420   44.0660 C.ar  182  TYR182     -0.0201
     41  CD1        9.2690   76.6700   44.9290 C.ar  182  TYR182     -0.0009
     42  CD2        8.2860   77.0810   42.7910 C.ar  182  TYR182     -0.0009
     43  CE1        9.6250   75.3680   44.5210 C.ar  182  TYR182      0.0417
     44  CE2        8.6290   75.7900   42.3760 C.ar  182  TYR182      0.0417
     45  CZ         9.2970   74.9350   43.2370 C.ar  182  TYR182      0.1957
     46  OH         9.6400   73.6670   42.7910 O.3   182  TYR182     -0.2866
     47  N          5.7280   75.5290   48.4200 N.3   184  ASP184     -0.1225
     48  CA         6.5600   74.4080   48.7660 C.3   184  ASP184      0.1805
     49  C          6.0120   73.7300   50.0220 C.2   184  ASP184      0.2597
     50  O          4.9630   74.1140   50.5390 O.2   184  ASP184     -0.2718
     51  CB         8.0040   74.8780   48.9550 C.3   184  ASP184      0.1424
     52  CG         9.0180   73.7730   48.7320 C.2   184  ASP184      0.3668
     53  OD1        8.7530   72.6060   49.1210 O.co2 184  ASP184     -0.2456
     54  OD2       10.0950   74.0720   48.1790 O.co2 184  ASP184     -0.2456
     55  N          6.7370   72.7200   50.4930 N.am  185  ARG185     -0.1979
     56  CA         6.3440   71.9090   51.6300 C.3   185  ARG185      0.1597
     57  C          6.8420   72.5150   52.9420 C.2   185  ARG185      0.2287
     58  O          7.4090   73.6100   52.9520 O.2   185  ARG185     -0.2864
     59  CB         6.8740   70.4720   51.4570 C.3   185  ARG185      0.0334
     60  CG         6.3370   69.7580   50.1890 C.3   185  ARG185      0.0492
     61  CD         6.7990   68.2940   50.0420 C.3   185  ARG185      0.2205
     62  NE         8.1940   68.2300   49.6390 N.pl3 185  ARG185     -0.0865
     63  CZ         8.7080   67.2940   48.8510 C.cat 185  ARG185      0.5346
     64  NH1        9.9970   67.3450   48.5390 N.pl3 185  ARG185      0.1354
     65  NH2        7.9390   66.3170   48.3660 N.pl3 185  ARG185      0.1354
     66  N         18.9920   64.2430   56.5500 N.3   198  LEU198     -0.1245
     67  CA        19.0180   64.2780   55.0880 C.3   198  LEU198      0.1561
     68  C         20.4670   64.3280   54.6840 C.2   198  LEU198      0.2260
     69  O         21.2280   65.1340   55.2210 O.2   198  LEU198     -0.2867
     70  CB        18.3430   65.5430   54.5870 C.3   198  LEU198      0.0270
     71  CG        17.7520   65.5150   53.1900 C.3   198  LEU198      0.0019
     72  CD1       16.7070   64.4350   53.1600 C.3   198  LEU198      0.0001
     73  CD2       17.1260   66.8730   52.8290 C.3   198  LEU198      0.0001
     74  N         23.5250   66.7820   49.5080 N.3   201  HIS201     -0.1241
     75  CA        23.1790   66.7840   48.1080 C.3   201  HIS201      0.1621
     76  C         23.1350   68.2500   47.6790 C.2   201  HIS201      0.2264
     77  O         23.3710   69.1450   48.4940 O.2   201  HIS201     -0.2867
     78  CB        21.7940   66.2120   47.9520 C.3   201  HIS201      0.0745
     79  CG        20.7700   66.9860   48.7030 C.ar  201  HIS201      0.0817
     80  ND1       20.7210   66.9990   50.0800 N.ar  201  HIS201     -0.2268
     81  CD2       19.7910   67.8170   48.2830 C.ar  201  HIS201      0.1154
     82  CE1       19.7340   67.7830   50.4760 C.ar  201  HIS201      0.1986
     83  NE2       19.1520   68.2910   49.4060 N.ar  201  HIS201     -0.2212
     84  N         20.3920   70.6980   45.0430 N.3   203  ASP203     -0.1239
     85  CA        19.1390   70.5930   44.3040 C.3   203  ASP203      0.1674
     86  C         19.2670   71.1790   42.8800 C.2   203  ASP203      0.2266
     87  O         20.3850   71.3510   42.3480 O.2   203  ASP203     -0.2867
     88  CB        17.9690   71.2000   45.1040 C.3   203  ASP203      0.1410
     89  CG        17.8110   70.5660   46.5080 C.2   203  ASP203      0.3668
     90  OD1       17.0780   69.5540   46.6540 O.co2 203  ASP203     -0.2456
     91  OD2       18.4090   71.0970   47.4750 O.co2 203  ASP203     -0.2456
     92  N          9.4960   64.3440   42.2010 N.3   250  THR250     -0.1203
     93  CA         9.9130   65.7110   42.4910 C.3   250  THR250      0.1994
     94  C         10.9260   66.2420   41.4790 C.2   250  THR250      0.2618
     95  O         11.9630   65.6120   41.2050 O.2   250  THR250     -0.2717
     96  CB        10.4690   65.8200   43.9440 C.3   250  THR250      0.1784
     97  OG1        9.3680   65.8330   44.8690 O.3   250  THR250     -0.2211
     98  CG2       11.3260   67.0740   44.1420 C.3   250  THR250      0.0376
     99  N         10.5800   67.3940   40.9080 N.am  251  LYS251     -0.1965
    100  CA        11.4920   68.1860   40.0760 C.3   251  LYS251      0.1728
    101  C         11.2930   69.6580   40.4230 C.2   251  LYS251      0.2616
    102  O         10.3750   70.0120   41.1690 O.2   251  LYS251     -0.2715
    103  CB        11.2410   67.9510   38.5700 C.3   251  LYS251      0.0311
    104  CG         9.8160   68.3070   38.0840 C.3   251  LYS251      0.0038
    105  CD         9.6990   68.2830   36.5730 C.3   251  LYS251      0.0206
    106  CE        10.7320   69.2120   35.9560 C.3   251  LYS251      0.1093
    107  NZ        10.3410   69.6650   34.6020 N.3   251  LYS251     -0.1314
    108  N         12.1460   70.5100   39.8710 N.am  252  CYS252     -0.1968
    109  CA        12.0220   71.9340   40.0760 C.3   252  CYS252      0.1712
    110  C         12.0620   72.6810   38.7410 C.2   252  CYS252      0.2296
    111  O         13.1260   72.8880   38.1460 O.2   252  CYS252     -0.2864
    112  CB        13.1130   72.4190   41.0120 C.3   252  CYS252      0.0983
    113  SG        13.0120   74.1800   41.3010 S.3   252  CYS252     -0.0798
    114  N         15.8050   79.4190   40.9300 N.3   256  ARG256     -0.1245
    115  CA        15.8840   79.9160   42.2820 C.3   256  ARG256      0.1563
    116  C         17.2440   80.4820   42.5040 C.2   256  ARG256      0.2260
    117  O         18.2460   79.7880   42.3470 O.2   256  ARG256     -0.2867
    118  CB        15.5910   78.8030   43.2870 C.3   256  ARG256      0.0307
    119  CG        14.1440   78.3450   43.2480 C.3   256  ARG256      0.0489
    120  CD        13.8650   77.3240   44.2790 C.3   256  ARG256      0.2205
    121  NE        14.4550   76.0320   43.9290 N.pl3 256  ARG256     -0.0865
    122  CZ        14.1060   74.8890   44.5090 C.cat 256  ARG256      0.5346
    123  NH1       13.1780   74.9050   45.4480 N.pl3 256  ARG256      0.1354
    124  NH2       14.6600   73.7440   44.1360 N.pl3 256  ARG256      0.1354
    125  N         17.6360   78.9770   47.6930 N.3   259  GLN259     -0.1245
    126  CA        16.6330   78.2920   48.4700 C.3   259  GLN259      0.1566
    127  C         16.7600   78.8330   49.8890 C.2   259  GLN259      0.2260
    128  O         17.8290   79.3340   50.3010 O.2   259  GLN259     -0.2867
    129  CB        16.8890   76.7880   48.4890 C.3   259  GLN259      0.0367
    130  CG        16.8320   76.0990   47.1580 C.3   259  GLN259      0.0905
    131  CD        17.4230   74.7220   47.2380 C.2   259  GLN259      0.2608
    132  OE1       18.6170   74.5320   47.0240 O.2   259  GLN259     -0.2717
    133  NE2       16.6030   73.7520   47.5870 N.am  259  GLN259     -0.0878
    134  N         24.0870   70.9400   50.7620 N.3   343  HIS343     -0.1241
    135  CA        23.4550   70.9950   52.0670 C.3   343  HIS343      0.1621
    136  C         22.8350   69.6450   52.5240 C.2   343  HIS343      0.2264
    137  O         22.5650   68.7300   51.7160 O.2   343  HIS343     -0.2867
    138  CB        22.3940   72.0740   52.0590 C.3   343  HIS343      0.0745
    139  CG        21.2860   71.7930   51.1070 C.ar  343  HIS343      0.0817
    140  ND1       21.3580   72.1270   49.7740 N.ar  343  HIS343     -0.2268
    141  CD2       20.0960   71.1670   51.2790 C.ar  343  HIS343      0.1154
    142  CE1       20.2450   71.7420   49.1720 C.ar  343  HIS343      0.1986
    143  NE2       19.4600   71.1610   50.0630 N.ar  343  HIS343     -0.2212
    144  N          9.1680   75.9790   53.8190 N.3   359  TYR359     -0.1241
    145  CA        10.0490   76.2110   52.6850 C.3   359  TYR359      0.1605
    146  C          9.5570   77.3820   51.8170 C.2   359  TYR359      0.2264
    147  O          8.4650   77.3250   51.2370 O.2   359  TYR359     -0.2867
    148  CB        10.2340   74.9580   51.8400 C.3   359  TYR359      0.0534
    149  CG        10.8750   73.7820   52.5490 C.ar  359  TYR359     -0.0201
    150  CD1       10.1630   72.5980   52.7560 C.ar  359  TYR359     -0.0009
    151  CD2       12.1840   73.8420   52.9920 C.ar  359  TYR359     -0.0009
    152  CE1       10.7390   71.5080   53.3920 C.ar  359  TYR359      0.0417
    153  CE2       12.7730   72.7620   53.6270 C.ar  359  TYR359      0.0417
    154  CZ        12.0480   71.5910   53.8210 C.ar  359  TYR359      0.1957
    155  OH        12.6320   70.5110   54.4470 O.3   359  TYR359     -0.2866
    156  N          5.5140   68.8130   42.3730 N.3   389  PHE389     -0.1241
    157  CA         5.4850   67.8720   43.4660 C.3   389  PHE389      0.1605
    158  C          4.4990   66.7470   43.1830 C.2   389  PHE389      0.2264
    159  O          3.5130   66.9700   42.4650 O.2   389  PHE389     -0.2867
    160  CB         5.1570   68.6050   44.7830 C.3   389  PHE389      0.0534
    161  CG         6.2000   69.6060   45.1800 C.ar  389  PHE389     -0.0203
    162  CD1        5.9250   70.9610   45.1520 C.ar  389  PHE389     -0.0042
    163  CD2        7.4870   69.1890   45.5300 C.ar  389  PHE389     -0.0042
    164  CE1        6.9070   71.8870   45.4890 C.ar  389  PHE389     -0.0003
    165  CE2        8.4720   70.1130   45.8660 C.ar  389  PHE389     -0.0003
    166  CZ         8.1800   71.4630   45.8440 C.ar  389  PHE389     -0.0000
@<TRIPOS>BOND
     1   107   106    1
     2   106   105    1
     3   105   104    1
     4   104   103    1
     5   111   110    2
     6   103   100    1
     7   110   109    1
     8   108   109    1
     9   108   101   am
    10   100   101    1
    11   100    99    1
    12   109   112    1
    13   101   102    2
    14    99    94   am
    15   114   115    1
    16   112   113    1
    17    95    94    2
    18    94    93    1
    19    92    93    1
    20   115   116    1
    21   115   118    1
    22   117   116    2
    23    87    86    2
    24   156   157    1
    25    44    42   ar
    26    44    45   ar
    27   159   158    2
    28    93    96    1
    29    10     8   ar
    30    10    11   ar
    31    46    45    1
    32    42    40   ar
    33    86    85    1
    34   158   157    1
    35    45    43   ar
    36   119   118    1
    37   119   120    1
    38     8     6   ar
    39   157   160    1
    40    11     9   ar
    41   121   120    1
    42   121   122    2
    43    96    98    1
    44    96    97    1
    45    40    39    1
    46    40    41   ar
    47   124   122    1
    48    85    84    1
    49    85    88    1
    50    39    36    1
    51   122   123    1
    52    43    41   ar
    53    36    35    1
    54    36    37    1
    55   160   161    1
    56     6     7   ar
    57     6     5    1
    58     9     7   ar
    59    88    89    1
    60   162   161   ar
    61   162   164   ar
    62   161   163   ar
    63     4     3    2
    64     2     5    1
    65     2     1    1
    66     2     3    1
    67   164   166   ar
    68   163   165   ar
    69   166   165   ar
    70     3    12   am
    71    37    38    2
    72    89    90   ar
    73    89    91   ar
    74    12    13    1
    75   132   131    2
    76   130   131    1
    77   130   129    1
    78   131   133   am
    79    76    75    1
    80    76    77    2
    81   125   126    1
    82    13    14    1
    83    13    16    1
    84    14    15    2
    85    78    75    1
    86    78    79    1
    87    75    74    1
    88    54    52   ar
    89    81    79   ar
    90    81    83   ar
    91    65    63    1
    92    47    48    1
    93   126   129    1
    94   126   127    1
    95    64    63    1
    96    79    80   ar
    97    52    51    1
    98    52    53   ar
    99    48    51    1
   100    48    49    1
   101    63    62    2
   102   142   140   ar
   103   142   143   ar
   104    16    17    1
   105    19    17   ar
   106    19    21   ar
   107    17    18   ar
   108    21    22   ar
   109    83    82   ar
   110    18    20   ar
   111    62    61    1
   112    22    20   ar
   113   140   139   ar
   114   127   128    2
   115    49    55   am
   116    49    50    2
   117    61    60    1
   118   143   141   ar
   119    80    82   ar
   120    60    59    1
   121    55    56    1
   122   134   135    1
   123   139   141   ar
   124   139   138    1
   125   147   146    2
   126    59    56    1
   127    56    57    1
   128   137   136    2
   129   146   145    1
   130   148   149    1
   131   148   145    1
   132   138   135    1
   133   135   136    1
   134   149   150   ar
   135   149   151   ar
   136   145   144    1
   137   150   152   ar
   138    73    71    1
   139    57    58    2
   140   151   153   ar
   141    30    32   ar
   142    30    28   ar
   143    72    71    1
   144    71    70    1
   145    32    33   ar
   146   152   154   ar
   147   153   154   ar
   148   154   155    1
   149    27    28    1
   150    27    24    1
   151    28    29   ar
   152    33    34    1
   153    33    31   ar
   154    70    67    1
   155    68    67    1
   156    68    69    2
   157    25    24    1
   158    25    26    2
   159    67    66    1
   160    29    31   ar
   161    24    23    1
