@<TRIPOS>MOLECULE
tmp/2csnA00.pdb
 151 141 0 0 0
SMALL
GASTEIGER

@<TRIPOS>ATOM
      1  N        -31.6400   47.4110   47.9140 N.3    13  ILE13      -0.1231
      2  CA       -30.6770   47.8300   46.9070 C.3    13  ILE13       0.1692
      3  C        -29.3240   47.2480   47.2800 C.2    13  ILE13       0.2592
      4  O        -28.3740   47.3210   46.5060 O.2    13  ILE13      -0.2718
      5  CB       -30.5580   49.3520   46.7910 C.3    13  ILE13       0.0266
      6  CG1      -30.2070   49.9670   48.1450 C.3    13  ILE13       0.0019
      7  CG2      -31.7990   49.9290   46.1590 C.3    13  ILE13       0.0020
      8  CD1      -29.9260   51.4510   48.0790 C.3    13  ILE13       0.0001
      9  N        -29.2750   46.6100   48.4450 N.am   14  GLY14      -0.1957
     10  CA       -28.0620   45.9920   48.9410 C.3    14  GLY14       0.1869
     11  C        -28.4020   45.0220   50.0590 C.2    14  GLY14       0.2309
     12  O        -29.4140   45.1690   50.7330 O.2    14  GLY14      -0.2863
     13  N        -30.1870   46.7660   52.9290 N.3    21  ILE21      -0.1245
     14  CA       -30.1840   48.2040   52.6760 C.3    21  ILE21       0.1561
     15  C        -31.2950   48.4340   51.6860 C.2    21  ILE21       0.2260
     16  O        -31.3670   47.7290   50.6750 O.2    21  ILE21      -0.2867
     17  CB       -28.8340   48.6760   52.1040 C.3    21  ILE21       0.0252
     18  CG1      -27.7280   48.3210   53.0890 C.3    21  ILE21       0.0019
     19  CG2      -28.8080   50.1690   51.9730 C.3    21  ILE21       0.0019
     20  CD1      -26.3600   48.5890   52.6030 C.3    21  ILE21       0.0001
     21  N        -30.9290   56.1530   51.6940 N.3    34  ALA34      -0.1245
     22  CA       -30.6790   54.7230   51.7860 C.3    34  ALA34       0.1562
     23  C        -30.9070   54.4320   53.2520 C.2    34  ALA34       0.2260
     24  O        -30.4020   55.1480   54.0990 O.2    34  ALA34      -0.2867
     25  CB       -29.2410   54.3940   51.4250 C.3    34  ALA34       0.0290
     26  N        -30.3120   51.6980   56.0990 N.3    36  LYS36      -0.1245
     27  CA       -29.6070   50.4970   56.4910 C.3    36  LYS36       0.1561
     28  C        -30.3110   49.8740   57.6940 C.2    36  LYS36       0.2260
     29  O        -30.6810   50.5660   58.6280 O.2    36  LYS36      -0.2867
     30  CB       -28.1690   50.8780   56.8270 C.3    36  LYS36       0.0271
     31  CG       -27.2060   49.7520   56.7320 C.3    36  LYS36       0.0035
     32  CD       -25.7740   50.2300   56.8090 C.3    36  LYS36       0.0206
     33  CE       -24.8740   49.0160   57.0280 C.3    36  LYS36       0.1093
     34  NZ       -23.4370   49.3460   57.1000 N.3    36  LYS36      -0.1314
     35  N        -21.1070   53.4510   63.7520 N.3    50  GLU50      -0.1245
     36  CA       -21.0390   53.9270   62.3970 C.3    50  GLU50       0.1567
     37  C        -21.6490   55.3290   62.3170 C.2    50  GLU50       0.2260
     38  O        -21.0780   56.2200   61.6830 O.2    50  GLU50      -0.2867
     39  CB       -21.7340   52.9570   61.4550 C.3    50  GLU50       0.0388
     40  CG       -21.4260   53.2100   60.0360 C.3    50  GLU50       0.1160
     41  CD       -21.7110   52.0090   59.1840 C.2    50  GLU50       0.3649
     42  OE1      -21.8000   50.8650   59.7140 O.co2  50  GLU50      -0.2457
     43  OE2      -21.8020   52.1910   57.9660 O.co2  50  GLU50      -0.2457
     44  N        -19.9210   58.7060   61.0400 N.3    54  TYR54      -0.1241
     45  CA       -20.4770   59.5360   59.9670 C.3    54  TYR54       0.1605
     46  C        -20.6020   60.9810   60.4830 C.2    54  TYR54       0.2264
     47  O        -20.2490   61.9290   59.7790 O.2    54  TYR54      -0.2867
     48  CB       -21.8700   59.0470   59.5120 C.3    54  TYR54       0.0534
     49  CG       -21.8770   57.9750   58.4270 C.ar   54  TYR54      -0.0201
     50  CD1      -21.4440   58.2620   57.1280 C.ar   54  TYR54      -0.0009
     51  CD2      -22.2850   56.6690   58.7080 C.ar   54  TYR54      -0.0009
     52  CE1      -21.4100   57.2680   56.1430 C.ar   54  TYR54       0.0417
     53  CE2      -22.2540   55.6780   57.7410 C.ar   54  TYR54       0.0417
     54  CZ       -21.8150   55.9750   56.4590 C.ar   54  TYR54       0.1957
     55  OH       -21.7760   54.9770   55.4940 O.3    54  TYR54      -0.2866
     56  N        -30.1250   53.0350   60.0950 N.3    78  LEU78      -0.1245
     57  CA       -29.2550   54.1820   59.8560 C.3    78  LEU78       0.1561
     58  C        -29.7100   54.7020   58.5130 C.2    78  LEU78       0.2260
     59  O        -29.7690   53.9350   57.5550 O.2    78  LEU78      -0.2867
     60  CB       -27.7990   53.7370   59.7640 C.3    78  LEU78       0.0270
     61  CG       -26.7730   54.8110   59.4010 C.3    78  LEU78       0.0019
     62  CD1      -26.6700   55.8010   60.5140 C.3    78  LEU78       0.0001
     63  CD2      -25.4240   54.1910   59.1630 C.3    78  LEU78       0.0001
     64  N        -28.9630   57.1750   55.4170 N.3    80  ILE80      -0.1231
     65  CA       -27.9200   57.9470   54.7440 C.3    80  ILE80       0.1692
     66  C        -28.4400   58.4630   53.4090 C.2    80  ILE80       0.2592
     67  O        -29.5480   58.1380   53.0170 O.2    80  ILE80      -0.2718
     68  CB       -26.7190   57.0480   54.3940 C.3    80  ILE80       0.0266
     69  CG1      -26.5460   55.9350   55.4170 C.3    80  ILE80       0.0019
     70  CG2      -25.4590   57.8580   54.3450 C.3    80  ILE80       0.0020
     71  CD1      -26.9360   54.5740   54.8920 C.3    80  ILE80       0.0001
     72  N        -27.6390   59.2880   52.7370 N.am   81  ASP81      -0.1960
     73  CA       -27.9430   59.8210   51.4030 C.3    81  ASP81       0.1840
     74  C        -27.9250   58.6370   50.4270 C.2    81  ASP81       0.2622
     75  O        -27.0970   57.7390   50.5840 O.2    81  ASP81      -0.2715
     76  CB       -26.8090   60.7360   50.9290 C.3    81  ASP81       0.1450
     77  CG       -27.0030   62.1720   51.2980 C.2    81  ASP81       0.3671
     78  OD1      -28.1160   62.6960   51.1480 O.co2  81  ASP81      -0.2456
     79  OD2      -26.0060   62.7970   51.6840 O.co2  81  ASP81      -0.2456
     80  N        -28.7810   58.6610   49.4040 N.am   82  LEU82      -0.1963
     81  CA       -28.8090   57.5920   48.4030 C.3    82  LEU82       0.1728
     82  C        -27.6310   57.8480   47.4830 C.2    82  LEU82       0.2616
     83  O        -27.3590   58.9930   47.1390 O.2    82  LEU82      -0.2715
     84  CB       -30.0980   57.6380   47.5890 C.3    82  LEU82       0.0311
     85  CG       -30.3220   56.4150   46.7030 C.3    82  LEU82       0.0022
     86  CD1      -30.1250   55.1120   47.4560 C.3    82  LEU82       0.0001
     87  CD2      -31.6880   56.4950   46.1390 C.3    82  LEU82       0.0001
     88  N        -26.8750   56.7980   47.1820 N.am   83  LEU83      -0.1963
     89  CA       -25.7320   56.9140   46.3100 C.3    83  LEU83       0.1728
     90  C        -25.8290   55.9920   45.0870 C.2    83  LEU83       0.2617
     91  O        -26.7780   55.2190   44.9440 O.2    83  LEU83      -0.2715
     92  CB       -24.4530   56.6420   47.0830 C.3    83  LEU83       0.0311
     93  CG       -24.0520   57.7500   48.0430 C.3    83  LEU83       0.0022
     94  CD1      -22.8090   57.3520   48.8060 C.3    83  LEU83       0.0001
     95  CD2      -23.8040   59.0190   47.3110 C.3    83  LEU83       0.0001
     96  N        -24.8690   56.1330   44.1810 N.am   84  GLY84      -0.1941
     97  CA       -24.8440   55.3320   42.9790 C.3    84  GLY84       0.1998
     98  C        -24.1660   54.0150   43.2760 C.2    84  GLY84       0.2481
     99  O        -23.9200   53.6990   44.4320 O.2    84  GLY84      -0.2729
    100  N        -23.8360   53.2230   42.2560 N.am   85  PRO85      -0.2715
    101  CA       -23.1860   51.9270   42.4210 C.3    85  PRO85       0.1536
    102  C        -21.7370   52.0360   42.8710 C.2    85  PRO85       0.2599
    103  O        -21.1720   53.1150   42.8670 O.2    85  PRO85      -0.2715
    104  CB       -23.3310   51.3080   41.0280 C.3    85  PRO85       0.0310
    105  CG       -23.2750   52.4820   40.1380 C.3    85  PRO85       0.0237
    106  CD       -24.1270   53.4970   40.8350 C.3    85  PRO85       0.0939
    107  N        -21.1540   50.9120   43.2750 N.am   86  SER86      -0.1950
    108  CA       -19.7620   50.8700   43.7510 C.3    86  SER86       0.1924
    109  C        -18.7810   50.6810   42.6180 C.2    86  SER86       0.2314
    110  O        -19.1810   50.2630   41.5320 O.2    86  SER86      -0.2863
    111  CB       -19.5650   49.6970   44.7260 C.3    86  SER86       0.2116
    112  OG       -19.9270   48.4660   44.1230 O.3    86  SER86      -0.2180
    113  N        -19.1880   47.3940   41.2140 N.3    89  ASP89      -0.1239
    114  CA       -20.3640   47.2150   40.3500 C.3    89  ASP89       0.1674
    115  C        -20.0280   47.6180   38.9270 C.2    89  ASP89       0.2266
    116  O        -20.4760   46.9930   37.9570 O.2    89  ASP89      -0.2867
    117  CB       -21.5090   48.1250   40.7770 C.3    89  ASP89       0.1410
    118  CG       -22.1900   47.6730   42.0240 C.2    89  ASP89       0.3668
    119  OD1      -22.1160   46.4640   42.3620 O.co2  89  ASP89      -0.2456
    120  OD2      -22.8290   48.5490   42.6490 O.co2  89  ASP89      -0.2456
    121  N        -15.9260   47.6650   46.8560 N.3   130  ASP130     -0.1239
    122  CA       -17.3580   47.6190   47.1190 C.3   130  ASP130      0.1674
    123  C        -17.7840   48.7800   48.0000 C.2   130  ASP130      0.2266
    124  O        -18.9590   49.0890   48.0710 O.2   130  ASP130     -0.2867
    125  CB       -17.7470   46.3280   47.8290 C.3   130  ASP130      0.1410
    126  CG       -17.1710   45.0830   47.1810 C.2   130  ASP130      0.3668
    127  OD1      -15.9370   44.8660   47.2150 O.co2 130  ASP130     -0.2456
    128  OD2      -17.9740   44.2620   46.6920 O.co2 130  ASP130     -0.2456
    129  N        -18.4520   54.2210   46.3180 N.3   133  LEU133     -0.1245
    130  CA       -19.6300   54.3300   45.4770 C.3   133  LEU133      0.1561
    131  C        -19.6170   55.6740   44.8110 C.2   133  LEU133      0.2260
    132  O        -19.0430   56.5940   45.3640 O.2   133  LEU133     -0.2867
    133  CB       -20.8930   54.2620   46.3270 C.3   133  LEU133      0.0270
    134  CG       -21.2320   53.2310   47.4010 C.3   133  LEU133      0.0019
    135  CD1      -22.7240   53.2310   47.4710 C.3   133  LEU133      0.0001
    136  CD2      -20.8020   51.8400   47.1200 C.3   133  LEU133      0.0001
    137  N        -18.1370   54.6770   52.0390 N.3   148  VAL148     -0.1231
    138  CA       -19.2680   54.3820   52.8960 C.3   148  VAL148      0.1692
    139  C        -18.8300   53.2190   53.7690 C.2   148  VAL148      0.2592
    140  O        -17.7530   52.6880   53.5780 O.2   148  VAL148     -0.2718
    141  CB       -20.5170   53.9690   52.0740 C.3   148  VAL148      0.0266
    142  CG1      -20.9710   55.1120   51.2170 C.3   148  VAL148      0.0020
    143  CG2      -20.2370   52.7340   51.2080 C.3   148  VAL148      0.0020
    144  N        -19.6680   52.8140   54.7080 N.am  149  ASP149     -0.1974
    145  CA       -19.3550   51.7020   55.6000 C.3   149  ASP149      0.1709
    146  C        -18.1840   51.9170   56.5720 C.2   149  ASP149      0.2293
    147  O        -17.0300   51.6220   56.2650 O.2   149  ASP149     -0.2864
    148  CB       -19.1750   50.4210   54.7900 C.3   149  ASP149      0.1436
    149  CG       -20.4110   49.5550   54.7930 C.2   149  ASP149      0.3671
    150  OD1      -21.5080   50.0700   54.5110 O.co2 149  ASP149     -0.2456
    151  OD2      -20.2790   48.3490   55.0970 O.co2 149  ASP149     -0.2456
@<TRIPOS>BOND
     1   116   115    2
     2   115   114    1
     3   105   106    1
     4   105   104    1
     5   114   117    1
     6   114   113    1
     7   117   118    1
     8   106   100    1
     9   104   101    1
    10   110   109    2
    11   118   119   ar
    12   118   120   ar
    13   100   101    1
    14   100    98   am
    15   101   102    1
    16   109   108    1
    17   103   102    2
    18   102   107   am
    19    97    98    1
    20    97    96    1
    21   107   108    1
    22    98    99    2
    23   108   111    1
    24   112   111    1
    25    96    90   am
    26   131   132    2
    27   131   130    1
    28    91    90    2
    29    90    89    1
    30   130   129    1
    31   130   133    1
    32    87    85    1
    33     7     5    1
    34    89    92    1
    35    89    88    1
    36   133   134    1
    37     4     3    2
    38   128   126   ar
    39    85    86    1
    40    85    84    1
    41     5     2    1
    42     5     6    1
    43   121   122    1
    44     2     3    1
    45     2     1    1
    46    92    93    1
    47   122   125    1
    48   122   123    1
    49   136   134    1
    50    83    82    2
    51   126   127   ar
    52   126   125    1
    53    88    82   am
    54     3     9   am
    55    95    93    1
    56   134   135    1
    57    82    81    1
    58    84    81    1
    59   123   124    2
    60    93    94    1
    61     8     6    1
    62    81    80    1
    63     9    10    1
    64    10    11    1
    65    80    74   am
    66    11    12    2
    67    74    75    2
    68    74    73    1
    69    16    15    2
    70    76    77    1
    71    76    73    1
    72    78    77   ar
    73   143   141    1
    74   142   141    1
    75    77    79   ar
    76    73    72    1
    77    25    22    1
    78    15    14    1
    79    21    22    1
    80    22    23    1
    81    19    17    1
    82   137   138    1
    83   141   138    1
    84    17    14    1
    85    17    18    1
    86    20    18    1
    87    14    13    1
    88    72    66   am
    89   138   139    1
    90    67    66    2
    91    23    24    2
    92    66    65    1
    93   140   139    2
    94   139   144   am
    95    70    68    1
    96    68    65    1
    97    68    69    1
    98   150   149   ar
    99   144   145    1
   100    65    64    1
   101   148   149    1
   102   148   145    1
   103   149   151   ar
   104    71    69    1
   105    55    54    1
   106   145   146    1
   107    26    27    1
   108    52    54   ar
   109    52    50   ar
   110   147   146    2
   111    54    53   ar
   112    27    30    1
   113    27    28    1
   114    31    32    1
   115    31    30    1
   116    32    33    1
   117    33    34    1
   118    50    49   ar
   119    59    58    2
   120    28    29    2
   121    53    51   ar
   122    43    41   ar
   123    49    51   ar
   124    49    48    1
   125    58    57    1
   126    63    61    1
   127    41    42   ar
   128    41    40    1
   129    61    60    1
   130    61    62    1
   131    48    45    1
   132    60    57    1
   133    47    46    2
   134    57    56    1
   135    45    46    1
   136    45    44    1
   137    40    39    1
   138    39    36    1
   139    38    37    2
   140    37    36    1
   141    36    35    1
