@<TRIPOS>MOLECULE
tmp/2cstB02.pdb
 103 100 0 0 0
SMALL
GASTEIGER

@<TRIPOS>ATOM
      1  N         47.3610  -13.2910   51.4070 N.3    16  VAL16      -0.1231
      2  CA        45.9940  -13.1030   51.9060 C.3    16  VAL16       0.1692
      3  C         44.9790  -12.6370   50.8800 C.2    16  VAL16       0.2592
      4  O         43.8120  -13.0670   50.8770 O.2    16  VAL16      -0.2718
      5  CB        45.8990  -12.1870   53.1100 C.3    16  VAL16       0.0266
      6  CG1       46.5050  -12.8560   54.3250 C.3    16  VAL16       0.0020
      7  CG2       46.5420  -10.8260   52.8260 C.3    16  VAL16       0.0020
      8  N         45.4120  -11.6980   50.0490 N.am   17  PHE17      -0.1976
      9  CA        44.5690  -11.1340   49.0320 C.3    17  PHE17       0.1639
     10  C         44.3400  -12.1280   47.8920 C.2    17  PHE17       0.2290
     11  O         43.2380  -12.2240   47.3190 O.2    17  PHE17      -0.2864
     12  CB        45.1320   -9.7710   48.5830 C.3    17  PHE17       0.0560
     13  CG        45.1480   -8.7840   49.7390 C.ar   17  PHE17      -0.0200
     14  CD1       44.0030   -8.5630   50.5100 C.ar   17  PHE17      -0.0042
     15  CD2       46.3120   -8.0970   50.0850 C.ar   17  PHE17      -0.0042
     16  CE1       43.9990   -7.6640   51.5780 C.ar   17  PHE17      -0.0003
     17  CE2       46.3300   -7.1960   51.1520 C.ar   17  PHE17      -0.0003
     18  CZ        45.1720   -6.9800   51.9020 C.ar   17  PHE17      -0.0000
     19  N         41.4280  -13.7750   54.9670 N.3    36  VAL36      -0.1231
     20  CA        41.5730  -12.4030   55.4190 C.3    36  VAL36       0.1692
     21  C         40.8660  -12.1270   56.7040 C.2    36  VAL36       0.2592
     22  O         39.7670  -12.5900   56.9170 O.2    36  VAL36      -0.2718
     23  CB        41.1790  -11.3570   54.3580 C.3    36  VAL36       0.0266
     24  CG1       39.6480  -11.2790   54.1990 C.3    36  VAL36       0.0020
     25  CG2       41.7780   -9.9870   54.7230 C.3    36  VAL36       0.0020
     26  N         41.5350  -11.3510   57.5330 N.am   37  GLY37      -0.1957
     27  CA        41.0310  -10.9440   58.8060 C.3    37  GLY37       0.1869
     28  C         39.9770   -9.8600   58.6530 C.2    37  GLY37       0.2309
     29  O         40.1740   -8.6860   58.9950 O.2    37  GLY37      -0.2863
     30  N         52.5880  -11.1900   61.5820 N.3   139  TRP139     -0.1227
     31  CA        51.9070  -10.7090   60.3810 C.3   139  TRP139      0.1737
     32  C         53.0150  -10.4540   59.3550 C.2   139  TRP139      0.2595
     33  O         53.9510   -9.7000   59.6100 O.2   139  TRP139     -0.2718
     34  CB        51.1700   -9.4130   60.7350 C.3   139  TRP139      0.0564
     35  CG        50.3910   -8.8060   59.6260 C.ar  139  TRP139      0.0003
     36  CD1       49.3960   -9.3940   58.9200 C.ar  139  TRP139      0.0946
     37  CD2       50.5050   -7.4680   59.1340 C.ar  139  TRP139      0.0152
     38  NE1       48.8630   -8.5020   58.0070 N.ar  139  TRP139     -0.2442
     39  CE2       49.5350   -7.3120   58.1130 C.ar  139  TRP139      0.0810
     40  CE3       51.3220   -6.3950   59.4660 C.ar  139  TRP139      0.0012
     41  CZ2       49.3550   -6.0980   57.4460 C.ar  139  TRP139      0.0191
     42  CZ3       51.1540   -5.2040   58.8010 C.ar  139  TRP139      0.0001
     43  CH2       50.1920   -5.0620   57.8010 C.ar  139  TRP139      0.0015
     44  N         52.9280  -11.1420   58.2280 N.am  140  GLU140     -0.1979
     45  CA        53.9500  -11.1470   57.1760 C.3   140  GLU140      0.1602
     46  C         54.4750   -9.8050   56.7610 C.2   140  GLU140      0.2287
     47  O         55.6740   -9.6330   56.5320 O.2   140  GLU140     -0.2864
     48  CB        53.6410  -12.0720   55.9690 C.3   140  GLU140      0.0415
     49  CG        52.2050  -11.9440   55.3920 C.3   140  GLU140      0.1163
     50  CD        51.7880  -10.5470   54.9590 C.2   140  GLU140      0.3649
     51  OE1       52.1080  -10.2520   53.6950 O.co2 140  GLU140     -0.2457
     52  OE2       51.1880   -9.7730   55.7110 O.co2 140  GLU140     -0.2457
     53  N         48.4460  -11.4950   65.8730 N.3   193  ASN193     -0.1240
     54  CA        48.1510  -12.0170   64.5400 C.3   193  ASN193      0.1653
     55  C         49.4240  -12.6420   64.0440 C.2   193  ASN193      0.2266
     56  O         50.4380  -11.9530   63.9750 O.2   193  ASN193     -0.2867
     57  CB        47.7290  -10.8450   63.6150 C.3   193  ASN193      0.1155
     58  CG        47.4620  -11.2600   62.1770 C.2   193  ASN193      0.2627
     59  OD1       47.5890  -12.4320   61.8100 O.2   193  ASN193     -0.2716
     60  ND2       47.0430  -10.3070   61.3670 N.am  193  ASN193     -0.0877
     61  N         43.6630   -4.2510   66.5850 N.3   224  TYR224     -0.1241
     62  CA        42.4570   -4.8340   67.0960 C.3   224  TYR224      0.1605
     63  C         41.9270   -4.3140   68.4230 C.2   224  TYR224      0.2264
     64  O         41.2540   -5.0590   69.1410 O.2   224  TYR224     -0.2867
     65  CB        42.7050   -6.3270   67.2650 C.3   224  TYR224      0.0534
     66  CG        42.9390   -6.9710   65.9480 C.ar  224  TYR224     -0.0201
     67  CD1       41.8240   -7.2590   65.1690 C.ar  224  TYR224     -0.0009
     68  CD2       44.2090   -7.3020   65.4680 C.ar  224  TYR224     -0.0009
     69  CE1       41.9350   -7.8800   63.9310 C.ar  224  TYR224      0.0417
     70  CE2       44.3480   -7.9050   64.2180 C.ar  224  TYR224      0.0417
     71  CZ        43.2100   -8.2020   63.4670 C.ar  224  TYR224      0.1957
     72  OH        43.3210   -8.8160   62.2530 O.3   224  TYR224     -0.2866
     73  N         39.5950   -2.6920   61.2460 N.3   257  LYS257     -0.1245
     74  CA        38.8010   -3.7530   61.8280 C.3   257  LYS257      0.1561
     75  C         37.7430   -3.3260   62.8540 C.2   257  LYS257      0.2260
     76  O         36.5890   -3.7560   62.7560 O.2   257  LYS257     -0.2867
     77  CB        39.7810   -4.8820   62.2410 C.3   257  LYS257      0.0271
     78  CG        40.5010   -5.5710   61.0410 C.3   257  LYS257      0.0035
     79  CD        42.0240   -5.4950   61.2210 C.3   257  LYS257      0.0206
     80  CE        42.8530   -5.9750   60.0040 C.3   257  LYS257      0.1093
     81  NZ        44.3150   -6.0900   60.3680 N.3   257  LYS257     -0.1314
     82  N         41.8220  -14.4460   65.0260 N.3   359  PHE359     -0.1241
     83  CA        42.4550  -15.6950   64.6740 C.3   359  PHE359      0.1605
     84  C         42.7450  -16.7140   65.7690 C.2   359  PHE359      0.2264
     85  O         42.9890  -16.3960   66.9380 O.2   359  PHE359     -0.2867
     86  CB        43.7730  -15.4220   63.9370 C.3   359  PHE359      0.0534
     87  CG        43.6270  -14.3420   62.9130 C.ar  359  PHE359     -0.0203
     88  CD1       43.0210  -14.6270   61.6900 C.ar  359  PHE359     -0.0042
     89  CD2       44.0760  -13.0470   63.1690 C.ar  359  PHE359     -0.0042
     90  CE1       42.8790  -13.6440   60.7090 C.ar  359  PHE359     -0.0003
     91  CE2       43.9440  -12.0490   62.2020 C.ar  359  PHE359     -0.0003
     92  CZ        43.3490  -12.3560   60.9770 C.ar  359  PHE359     -0.0000
     93  N         46.3060  -20.8300   60.2350 N.3   385  ARG385     -0.1245
     94  CA        45.5730  -19.7200   60.7630 C.3   385  ARG385      0.1563
     95  C         44.1640  -19.6260   60.2090 C.2   385  ARG385      0.2260
     96  O         43.9530  -19.4780   58.9980 O.2   385  ARG385     -0.2867
     97  CB        46.3100  -18.4300   60.4920 C.3   385  ARG385      0.0307
     98  CG        45.5440  -17.1980   60.9380 C.3   385  ARG385      0.0489
     99  CD        46.1430  -15.9130   60.3950 C.3   385  ARG385      0.2205
    100  NE        45.4740  -15.4070   59.2080 N.pl3 385  ARG385     -0.0865
    101  CZ        45.5370  -14.1360   58.8210 C.cat 385  ARG385      0.5346
    102  NH1       46.2320  -13.2050   59.4880 N.pl3 385  ARG385      0.1354
    103  NH2       44.8930  -13.7840   57.7140 N.pl3 385  ARG385      0.1354
@<TRIPOS>BOND
     1    11    10    2
     2    10     9    1
     3    12     9    1
     4    12    13    1
     5     9     8    1
     6    13    15   ar
     7    13    14   ar
     8     8     3   am
     9    15    17   ar
    10    14    16   ar
    11     4     3    2
    12     3     2    1
    13    17    18   ar
    14     1     2    1
    15    16    18   ar
    16     2     5    1
    17     7     5    1
    18     5     6    1
    19    51    50   ar
    20    24    23    1
    21    23    25    1
    22    23    20    1
    23    50    49    1
    24    50    52   ar
    25    19    20    1
    26    49    48    1
    27    20    21    1
    28    48    45    1
    29    47    46    2
    30    21    22    2
    31    21    26   am
    32    46    45    1
    33    45    44    1
    34    41    43   ar
    35    41    39   ar
    36    26    27    1
    37   103   101    1
    38    43    42   ar
    39    38    39   ar
    40    38    36   ar
    41    39    37   ar
    42    44    32   am
    43    28    27    1
    44    28    29    2
    45    42    40   ar
    46   101   100    2
    47   101   102    1
    48    36    35   ar
    49    96    95    2
    50    37    40   ar
    51    37    35   ar
    52   100    99    1
    53    32    33    2
    54    32    31    1
    55    35    34    1
    56    80    81    1
    57    80    79    1
    58    95    94    1
    59    93    94    1
    60    31    34    1
    61    31    30    1
    62    99    98    1
    63    97    94    1
    64    97    98    1
    65    90    92   ar
    66    90    88   ar
    67    92    91   ar
    68    78    79    1
    69    78    77    1
    70    73    74    1
    71    60    58   am
    72    88    87   ar
    73    59    58    2
    74    74    77    1
    75    74    75    1
    76    58    57    1
    77    91    89   ar
    78    72    71    1
    79    76    75    2
    80    87    89   ar
    81    87    86    1
    82    71    69   ar
    83    71    70   ar
    84    57    54    1
    85    69    67   ar
    86    86    83    1
    87    56    55    2
    88    55    54    1
    89    70    68   ar
    90    54    53    1
    91    83    82    1
    92    83    84    1
    93    67    66   ar
    94    68    66   ar
    95    84    85    2
    96    66    65    1
    97    61    62    1
    98    62    65    1
    99    62    63    1
   100    63    64    2
