@<TRIPOS>MOLECULE
tmp/2ctcA00.pdb
 146 136 0 0 0
SMALL
GASTEIGER

@<TRIPOS>ATOM
      1  N         -1.8920   21.6330   -5.2860 N.3    69  HIS69      -0.1241
      2  CA        -1.2780   22.2570   -4.0930 C.3    69  HIS69       0.1621
      3  C         -1.9690   21.5700   -2.9110 C.2    69  HIS69       0.2264
      4  O         -3.1670   21.7730   -2.6700 O.2    69  HIS69      -0.2867
      5  CB        -1.5240   23.7560   -4.0070 C.3    69  HIS69       0.0745
      6  CG        -0.6930   24.4820   -5.0450 C.ar   69  HIS69       0.0817
      7  ND1       -1.2110   25.6110   -5.6630 N.ar   69  HIS69      -0.2268
      8  CD2        0.5430   24.2690   -5.5570 C.ar   69  HIS69       0.1154
      9  CE1       -0.3030   26.0750   -6.5270 C.ar   69  HIS69       0.1986
     10  NE2        0.7600   25.2740   -6.4550 N.ar   69  HIS69      -0.2212
     11  N         -4.6060   22.8930   -0.0730 N.3    72  GLU72      -0.1245
     12  CA        -5.9160   23.4490   -0.4830 C.3    72  GLU72       0.1567
     13  C         -6.9700   22.3460   -0.3520 C.2    72  GLU72       0.2260
     14  O         -7.5860   21.9980   -1.3700 O.2    72  GLU72      -0.2867
     15  CB        -5.7370   24.0040   -1.9210 C.3    72  GLU72       0.0388
     16  CG        -4.7150   25.1670   -1.8350 C.3    72  GLU72       0.1160
     17  CD        -4.1900   25.5840   -3.1680 C.2    72  GLU72       0.3649
     18  OE1       -4.7240   25.2720   -4.2600 O.co2  72  GLU72      -0.2457
     19  OE2       -3.1330   26.2370   -3.2200 O.co2  72  GLU72      -0.2457
     20  N          2.5690   22.9670    0.5130 N.3   127  ARG127     -0.1245
     21  CA         2.0940   23.2520   -0.8370 C.3   127  ARG127      0.1563
     22  C          2.6890   22.4200   -1.9860 C.2   127  ARG127      0.2260
     23  O          1.9800   22.0570   -2.9520 O.2   127  ARG127     -0.2867
     24  CB         2.4260   24.7250   -1.1490 C.3   127  ARG127      0.0307
     25  CG         2.2730   25.2240   -2.5790 C.3   127  ARG127      0.0489
     26  CD         2.7170   26.6960   -2.6430 C.3   127  ARG127      0.2205
     27  NE         2.6830   27.3030   -3.9690 N.pl3 127  ARG127     -0.0865
     28  CZ         1.7240   28.0400   -4.5370 C.cat 127  ARG127      0.5346
     29  NH1        0.5900   28.3200   -3.8790 N.pl3 127  ARG127      0.1354
     30  NH2        1.8240   28.5200   -5.7900 N.pl3 127  ARG127      0.1354
     31  N          2.5720   23.6360   -9.8230 N.3   144  ASN144     -0.1225
     32  CA         1.8690   24.6020  -10.6750 C.3   144  ASN144      0.1785
     33  C          2.8160   25.6820  -11.2220 C.2   144  ASN144      0.2597
     34  O          2.3810   26.7100  -11.7190 O.2   144  ASN144     -0.2718
     35  CB         0.5980   25.2160  -10.1090 C.3   144  ASN144      0.1169
     36  CG        -0.3410   25.6490  -11.2480 C.2   144  ASN144      0.2627
     37  OD1       -0.3340   25.0060  -12.3040 O.2   144  ASN144     -0.2716
     38  ND2       -1.0790   26.7030  -11.0020 N.am  144  ASN144     -0.0877
     39  N          4.1080   25.3920  -11.1400 N.am  145  ARG145     -0.1979
     40  CA         5.1270   26.2710  -11.7590 C.3   145  ARG145      0.1597
     41  C          6.0490   25.3850  -12.6060 C.2   145  ARG145      0.2287
     42  O          7.0510   25.8620  -13.1750 O.2   145  ARG145     -0.2864
     43  CB         5.9700   27.0170  -10.7080 C.3   145  ARG145      0.0334
     44  CG         5.2230   27.9530   -9.7800 C.3   145  ARG145      0.0492
     45  CD         4.6720   29.1300  -10.6170 C.3   145  ARG145      0.2205
     46  NE         3.9930   30.0980   -9.7500 N.pl3 145  ARG145     -0.0865
     47  CZ         2.7450   29.9240   -9.3130 C.cat 145  ARG145      0.5346
     48  NH1        2.0270   28.8350   -9.6530 N.pl3 145  ARG145      0.1354
     49  NH2        2.2150   30.8440   -8.5000 N.pl3 145  ARG145      0.1354
     50  N         -8.0630   25.1800   -7.5190 N.3   196  HIS196     -0.1241
     51  CA        -7.2270   25.5990   -6.3720 C.3   196  HIS196      0.1621
     52  C         -8.0470   26.3400   -5.3160 C.2   196  HIS196      0.2264
     53  O         -9.2720   26.4840   -5.5030 O.2   196  HIS196     -0.2867
     54  CB        -6.2640   26.7140   -6.9280 C.3   196  HIS196      0.0745
     55  CG        -5.2360   26.1430   -7.8480 C.ar  196  HIS196      0.0817
     56  ND1       -3.9370   25.9840   -7.3760 N.ar  196  HIS196     -0.2268
     57  CD2       -5.2680   25.6930   -9.1220 C.ar  196  HIS196      0.1154
     58  CE1       -3.2040   25.4470   -8.3660 C.ar  196  HIS196      0.1986
     59  NE2       -3.9910   25.2570   -9.4140 N.ar  196  HIS196     -0.2212
     60  N        -10.1150   32.1430  -13.5390 N.3   203  LEU203     -0.1245
     61  CA        -9.0350   32.6300  -14.3960 C.3   203  LEU203      0.1561
     62  C         -8.8400   31.8820  -15.7080 C.2   203  LEU203      0.2260
     63  O         -9.1000   30.6810  -15.8220 O.2   203  LEU203     -0.2867
     64  CB        -7.7190   32.5290  -13.5600 C.3   203  LEU203      0.0270
     65  CG        -7.6850   33.1440  -12.1650 C.3   203  LEU203      0.0019
     66  CD1       -6.3910   32.8070  -11.4300 C.3   203  LEU203      0.0001
     67  CD2       -7.8330   34.6550  -12.2680 C.3   203  LEU203      0.0001
     68  N         -0.7660   33.4970  -17.6490 N.3   207  GLY207     -0.1225
     69  CA        -0.1120   33.9700  -16.4230 C.3   207  GLY207      0.1811
     70  C          1.3550   34.3460  -16.7120 C.2   207  GLY207      0.2280
     71  O          1.9070   35.1800  -16.0080 O.2   207  GLY207     -0.2866
     72  N         -4.9610   35.3470  -15.8400 N.3   243  ILE243     -0.1245
     73  CA        -4.1520   35.2250  -14.5940 C.3   243  ILE243      0.1561
     74  C         -3.2940   36.4610  -14.2590 C.2   243  ILE243      0.2260
     75  O         -3.3040   37.0140  -13.1570 O.2   243  ILE243     -0.2867
     76  CB        -3.2370   33.9860  -14.7310 C.3   243  ILE243      0.0252
     77  CG1       -4.0100   32.6740  -14.9190 C.3   243  ILE243      0.0019
     78  CG2       -2.2720   33.8360  -13.5360 C.3   243  ILE243      0.0019
     79  CD1       -3.1470   31.5980  -15.6160 C.3   243  ILE243      0.0001
     80  N         -4.5770   37.9880  -10.8370 N.3   247  ILE247     -0.1231
     81  CA        -3.9250   37.5220   -9.5780 C.3   247  ILE247      0.1692
     82  C         -2.5250   38.0620   -9.6180 C.2   247  ILE247      0.2592
     83  O         -2.2780   39.0880   -8.9660 O.2   247  ILE247     -0.2718
     84  CB        -4.2060   36.0310   -9.4350 C.3   247  ILE247      0.0266
     85  CG1       -3.8430   35.5010   -8.0510 C.3   247  ILE247      0.0019
     86  CG2       -3.5310   35.1400  -10.4600 C.3   247  ILE247      0.0020
     87  CD1       -3.9850   33.9840   -7.9890 C.3   247  ILE247      0.0001
     88  N         -1.6150   37.5360  -10.4050 N.am  248  TYR248     -0.1976
     89  CA        -0.2390   37.9620  -10.5490 C.3   248  TYR248      0.1639
     90  C          0.4160   37.2360  -11.7370 C.2   248  TYR248      0.2290
     91  O         -0.2300   36.3170  -12.2680 O.2   248  TYR248     -0.2864
     92  CB         0.5400   37.5120   -9.2740 C.3   248  TYR248      0.0560
     93  CG         0.1310   36.2040   -8.6070 C.ar  248  TYR248     -0.0198
     94  CD1        0.1330   34.9690   -9.2770 C.ar  248  TYR248     -0.0009
     95  CD2       -0.2500   36.1780   -7.2620 C.ar  248  TYR248     -0.0009
     96  CE1       -0.2400   33.7900   -8.6620 C.ar  248  TYR248      0.0417
     97  CE2       -0.6180   35.0050   -6.6300 C.ar  248  TYR248      0.0417
     98  CZ        -0.6230   33.8010   -7.3320 C.ar  248  TYR248      0.1957
     99  OH        -1.0180   32.6290   -6.6840 O.3   248  TYR248     -0.2866
    100  N          2.5870   34.5540  -13.1520 N.3   250  ALA250     -0.1245
    101  CA         2.9180   33.2040  -12.6810 C.3   250  ALA250      0.1562
    102  C          3.3890   32.4410  -13.9140 C.2   250  ALA250      0.2260
    103  O          2.6480   32.3710  -14.8800 O.2   250  ALA250     -0.2867
    104  CB         1.6970   32.5400  -12.0430 C.3   250  ALA250      0.0290
    105  N          2.4320   27.4870  -15.3280 N.3   253  GLY253     -0.1210
    106  CA         1.1400   27.0310  -14.8090 C.3   253  GLY253      0.1956
    107  C          0.4720   26.1370  -15.8430 C.2   253  GLY253      0.2613
    108  O          0.6140   26.2080  -17.0820 O.2   253  GLY253     -0.2717
    109  N         -0.3590   25.2540  -15.2680 N.am  254  SER254     -0.1938
    110  CA        -0.9870   24.2250  -16.1280 C.3   254  SER254      0.2055
    111  C         -1.9120   24.6720  -17.2070 C.2   254  SER254      0.2643
    112  O         -1.8560   24.0910  -18.3060 O.2   254  SER254     -0.2714
    113  CB        -1.6170   23.1470  -15.2210 C.3   254  SER254      0.2130
    114  OG        -2.7700   23.6390  -14.6090 O.3   254  SER254     -0.2179
    115  N         -2.7330   25.6620  -16.9000 N.am  255  ILE255     -0.1963
    116  CA        -3.7170   26.1250  -17.9200 C.3   255  ILE255      0.1727
    117  C         -3.0300   26.8860  -19.0420 C.2   255  ILE255      0.2616
    118  O         -3.5940   26.9250  -20.1460 O.2   255  ILE255     -0.2715
    119  CB        -4.9810   26.8250  -17.3700 C.3   255  ILE255      0.0290
    120  CG1       -4.6360   28.1950  -16.7750 C.3   255  ILE255      0.0022
    121  CG2       -5.6720   25.9190  -16.3410 C.3   255  ILE255      0.0023
    122  CD1       -5.8540   29.0740  -16.6030 C.3   255  ILE255      0.0001
    123  N         -1.8570   27.4530  -18.8340 N.am  256  ASP256     -0.1971
    124  CA        -1.1170   28.1320  -19.9210 C.3   256  ASP256      0.1709
    125  C         -0.6080   27.0420  -20.8530 C.2   256  ASP256      0.2293
    126  O         -0.7190   27.1110  -22.0770 O.2   256  ASP256     -0.2864
    127  CB        -0.0120   28.9560  -19.3170 C.3   256  ASP256      0.1436
    128  CG        -0.5370   30.2720  -18.7300 C.2   256  ASP256      0.3671
    129  OD1       -1.7720   30.5000  -18.8140 O.co2 256  ASP256     -0.2456
    130  OD2        0.2990   31.0010  -18.1710 O.co2 256  ASP256     -0.2456
    131  N         -8.9000   28.0480  -14.5260 N.3   268  THR268     -0.1218
    132  CA        -8.5710   27.6990  -13.1480 C.3   268  THR268      0.1862
    133  C         -9.6100   28.3420  -12.2440 C.2   268  THR268      0.2287
    134  O         -9.9060   29.5410  -12.4320 O.2   268  THR268     -0.2866
    135  CB        -7.1990   28.1090  -12.5800 C.3   268  THR268      0.1770
    136  OG1       -6.2230   27.2630  -13.1930 O.3   268  THR268     -0.2211
    137  CG2       -7.0050   27.9750  -11.0630 C.3   268  THR268      0.0375
    138  N        -10.3370   29.3570   -8.2520 N.3   270  GLU270     -0.1245
    139  CA        -9.7300   29.5670   -6.9310 C.3   270  GLU270      0.1567
    140  C        -10.9920   29.5990   -6.0180 C.2   270  GLU270      0.2260
    141  O        -11.7540   30.5680   -6.1070 O.2   270  GLU270     -0.2867
    142  CB        -8.9330   30.8430   -6.7710 C.3   270  GLU270      0.0388
    143  CG        -7.7510   30.8980   -7.7390 C.3   270  GLU270      0.1160
    144  CD        -6.5470   30.2790   -7.0580 C.2   270  GLU270      0.3649
    145  OE1       -6.6060   29.8260   -5.8890 O.co2 270  GLU270     -0.2457
    146  OE2       -5.5040   30.1870   -7.7140 O.co2 270  GLU270     -0.2457
@<TRIPOS>BOND
     1   126   125    2
     2   125   124    1
     3   118   117    2
     4   124   127    1
     5   124   123    1
     6   127   128    1
     7   117   123   am
     8   117   116    1
     9   129   128   ar
    10   128   130   ar
    11   112   111    2
    12   116   119    1
    13   116   115    1
    14    68    69    1
    15   119   120    1
    16   119   121    1
    17   111   115   am
    18   111   110    1
    19   108   107    2
    20   120   122    1
    21    70    69    1
    22    70    71    2
    23   110   109    1
    24   110   113    1
    25   107   109   am
    26   107   106    1
    27    72    73    1
    28    63    62    2
    29    62    61    1
    30    79    77    1
    31   105   106    1
    32   113   114    1
    33    77    76    1
    34   103   102    2
    35    76    73    1
    36    76    78    1
    37    73    74    1
    38   131   132    1
    39    61    64    1
    40    61    60    1
    41    74    75    2
    42   102   101    1
    43    64    65    1
    44   136   135    1
    45    42    41    2
    46   100   101    1
    47   132   135    1
    48   132   133    1
    49   101   104    1
    50    41    40    1
    51   135   137    1
    52   134   133    2
    53    37    36    2
    54    91    90    2
    55    67    65    1
    56    65    66    1
    57    40    39    1
    58    40    43    1
    59    90    89    1
    60    34    33    2
    61    36    38   am
    62    36    35    1
    63    33    39   am
    64    33    32    1
    65    80    81    1
    66    43    44    1
    67    32    35    1
    68    32    31    1
    69    45    44    1
    70    45    46    1
    71    89    88    1
    72    89    92    1
    73    86    84    1
    74    88    82   am
    75    46    47    2
    76    48    47    1
    77    82    81    1
    78    82    83    2
    79    81    84    1
    80    84    85    1
    81    59    57   ar
    82    59    58   ar
    83    47    49    1
    84    94    96   ar
    85    94    93   ar
    86    92    93    1
    87    57    55   ar
    88    96    98   ar
    89    93    95   ar
    90    58    56   ar
    91   138   139    1
    92    85    87    1
    93    55    56   ar
    94    55    54    1
    95   143   144    1
    96   143   142    1
    97   146   144   ar
    98    50    51    1
    99    98    99    1
   100    98    97   ar
   101    95    97   ar
   102   144   145   ar
   103   139   142    1
   104   139   140    1
   105    54    51    1
   106     9    10   ar
   107     9     7   ar
   108    10     8   ar
   109    51    52    1
   110   141   140    2
   111    30    28    1
   112     7     6   ar
   113     8     6   ar
   114    53    52    2
   115     1     2    1
   116     6     5    1
   117    28    27    2
   118    28    29    1
   119    18    17   ar
   120     2     5    1
   121     2     3    1
   122    27    26    1
   123    19    17   ar
   124    17    16    1
   125    23    22    2
   126     3     4    2
   127    26    25    1
   128    25    24    1
   129    22    21    1
   130    15    16    1
   131    15    12    1
   132    14    13    2
   133    24    21    1
   134    21    20    1
   135    12    13    1
   136    12    11    1
