@<TRIPOS>MOLECULE
tmp/2ctsA01.pdb
 133 128 0 0 0
SMALL
GASTEIGER

@<TRIPOS>ATOM
      1  N         14.2240  -14.1500   -7.5750 N.3    58  LEU58      -0.1245
      2  CA        15.2770  -14.2170   -6.5680 C.3    58  LEU58       0.1561
      3  C         15.6430  -15.6360   -6.1770 C.2    58  LEU58       0.2260
      4  O         14.8610  -16.3620   -5.5040 O.2    58  LEU58      -0.2867
      5  CB        14.9000  -13.4150   -5.3140 C.3    58  LEU58       0.0270
      6  CG        16.0610  -13.3180   -4.3230 C.3    58  LEU58       0.0019
      7  CD1       17.1740  -12.4940   -4.9830 C.3    58  LEU58       0.0001
      8  CD2       15.6190  -12.7630   -2.9530 C.3    58  LEU58       0.0001
      9  N         13.3280   -6.6580   -7.4300 N.3   238  HIS238     -0.1241
     10  CA        13.7720   -7.7610   -6.5640 C.3   238  HIS238      0.1621
     11  C         12.7140   -8.8100   -6.2960 C.2   238  HIS238      0.2264
     12  O         12.1820   -8.9260   -5.1520 O.2   238  HIS238     -0.2867
     13  CB        14.2620   -7.2380   -5.2180 C.3   238  HIS238      0.0745
     14  CG        15.4250   -8.0930   -4.6980 C.ar  238  HIS238      0.0817
     15  ND1       15.3180   -8.8230   -3.5130 N.ar  238  HIS238     -0.2268
     16  CD2       16.6590   -8.2360   -5.2000 C.ar  238  HIS238      0.1154
     17  CE1       16.5600   -9.4260   -3.2730 C.ar  238  HIS238      0.1986
     18  NE2       17.4040   -9.0470   -4.3390 N.ar  238  HIS238     -0.2212
     19  N          7.9530  -10.6950   -4.3770 N.3   241  GLY241     -0.1210
     20  CA         7.7180  -11.0940   -2.9920 C.3   241  GLY241      0.1956
     21  C          7.9850  -10.0160   -1.9470 C.2   241  GLY241      0.2612
     22  O          7.4740  -10.1280   -0.8020 O.2   241  GLY241     -0.2717
     23  N          8.7920   -9.0250   -2.2650 N.am  242  ASN242     -0.1960
     24  CA         9.1970   -7.9930   -1.2940 C.3   242  ASN242      0.1819
     25  C          8.1320   -6.9210   -1.1320 C.2   242  ASN242      0.2621
     26  O          7.1820   -6.9040   -1.9430 O.2   242  ASN242     -0.2715
     27  CB        10.4830   -7.2980   -1.7600 C.3   242  ASN242      0.1195
     28  CG        10.1850   -6.4380   -2.9830 C.2   242  ASN242      0.2630
     29  OD1        9.8840   -5.2320   -2.7970 O.2   242  ASN242     -0.2716
     30  ND2       10.8670   -6.8340   -4.0370 N.am  242  ASN242     -0.0877
     31  N          8.1400   -6.3200    0.0270 N.am  243  VAL243     -0.1977
     32  CA         7.0200   -5.4990    0.4610 C.3   243  VAL243      0.1596
     33  C          6.6500   -4.4190   -0.5430 C.2   243  VAL243      0.2287
     34  O          5.4510   -4.2570   -0.8660 O.2   243  VAL243     -0.2864
     35  CB         7.2680   -4.9460    1.8780 C.3   243  VAL243      0.0276
     36  CG1        6.1580   -3.9900    2.3500 C.3   243  VAL243      0.0022
     37  CG2        7.3700   -6.1230    2.8580 C.3   243  VAL243      0.0022
     38  N         12.1600   -2.1010    8.2270 N.3   273  LEU273     -0.1231
     39  CA        12.5150   -3.4750    7.9600 C.3   273  LEU273      0.1693
     40  C         12.6470   -3.6830    6.4710 C.2   273  LEU273      0.2592
     41  O         12.9960   -4.8000    6.0230 O.2   273  LEU273     -0.2718
     42  CB        11.3640   -4.3530    8.4450 C.3   273  LEU273      0.0284
     43  CG        11.7300   -5.1240    9.7230 C.3   273  LEU273      0.0019
     44  CD1       12.4430   -4.2700   10.7920 C.3   273  LEU273      0.0001
     45  CD2       10.5220   -5.8950   10.2800 C.3   273  LEU273      0.0001
     46  N         12.2980   -2.6520    5.7490 N.am  274  HIS274     -0.1976
     47  CA        12.4250   -2.6850    4.3000 C.3   274  HIS274      0.1656
     48  C         13.4700   -1.6580    3.8380 C.2   274  HIS274      0.2291
     49  O         14.5850   -1.6380    4.4180 O.2   274  HIS274     -0.2864
     50  CB        11.0280   -2.6240    3.6290 C.3   274  HIS274      0.0771
     51  CG        11.0310   -3.0140    2.1350 C.ar  274  HIS274      0.0820
     52  ND1       12.0910   -3.7390    1.5670 N.ar  274  HIS274     -0.2267
     53  CD2       10.1470   -2.7140    1.1690 C.ar  274  HIS274      0.1154
     54  CE1       11.8360   -3.8770    0.1840 C.ar  274  HIS274      0.1986
     55  NE2       10.6080   -3.2340   -0.0580 N.ar  274  HIS274     -0.2212
     56  N         18.1900  -11.0720    5.3370 N.3   320  HIS320     -0.1226
     57  CA        17.2650  -11.1040    4.2110 C.3   320  HIS320      0.1752
     58  C         16.2190  -12.1930    4.4030 C.2   320  HIS320      0.2596
     59  O         16.5570  -13.2540    4.9890 O.2   320  HIS320     -0.2718
     60  CB        18.0400  -11.3370    2.9010 C.3   320  HIS320      0.0759
     61  CG        17.2280  -10.7490    1.7410 C.ar  320  HIS320      0.0818
     62  ND1       16.4240  -11.5710    0.9590 N.ar  320  HIS320     -0.2268
     63  CD2       17.0790   -9.4730    1.3490 C.ar  320  HIS320      0.1154
     64  CE1       15.7520  -10.7650    0.0330 C.ar  320  HIS320      0.1986
     65  NE2       16.1630   -9.4400    0.2890 N.ar  320  HIS320     -0.2212
     66  N         15.0090  -11.9620    3.9470 N.am  321  ALA321     -0.1966
     67  CA        13.9670  -12.9880    4.0270 C.3   321  ALA321      0.1728
     68  C         14.0460  -14.1560    3.0420 C.2   321  ALA321      0.2616
     69  O         13.4930  -15.2370    3.3820 O.2   321  ALA321     -0.2715
     70  CB        12.5570  -12.3690    4.0470 C.3   321  ALA321      0.0334
     71  N         14.8390  -14.0780    1.9730 N.am  322  VAL322     -0.1977
     72  CA        15.0040  -15.1900    0.9950 C.3   322  VAL322      0.1596
     73  C         16.4500  -15.5680    0.6460 C.2   322  VAL322      0.2287
     74  O         16.7450  -16.7790    0.4860 O.2   322  VAL322     -0.2864
     75  CB        14.2390  -14.9180   -0.3250 C.3   322  VAL322      0.0276
     76  CG1       14.2950  -16.0850   -1.3360 C.3   322  VAL322      0.0022
     77  CG2       12.8030  -14.3910   -0.1360 C.3   322  VAL322      0.0022
     78  N         24.1420   -7.5650   -4.7790 N.3   329  ARG329     -0.1245
     79  CA        23.9930   -6.0990   -4.8310 C.3   329  ARG329      0.1563
     80  C         24.8750   -5.4510   -3.7700 C.2   329  ARG329      0.2260
     81  O         25.3990   -4.3320   -4.0020 O.2   329  ARG329     -0.2867
     82  CB        22.5200   -5.7020   -4.6020 C.3   329  ARG329      0.0307
     83  CG        21.5880   -6.2240   -5.7130 C.3   329  ARG329      0.0489
     84  CD        20.1110   -5.9160   -5.4090 C.3   329  ARG329      0.2205
     85  NE        19.7800   -6.3960   -4.0650 N.pl3 329  ARG329     -0.0865
     86  CZ        18.6340   -6.1060   -3.4910 C.cat 329  ARG329      0.5346
     87  NH1       17.8220   -5.2830   -4.1010 N.pl3 329  ARG329      0.1354
     88  NH2       18.2790   -6.6300   -2.3330 N.pl3 329  ARG329      0.1354
     89  N         22.8950   -7.3510    2.9920 N.3   373  ASN373     -0.1225
     90  CA        21.9740   -7.1220    1.8670 C.3   373  ASN373      0.1785
     91  C         22.2920   -5.7870    1.2100 C.2   373  ASN373      0.2597
     92  O         23.3210   -5.1790    1.6000 O.2   373  ASN373     -0.2718
     93  CB        20.4900   -7.2010    2.3060 C.3   373  ASN373      0.1169
     94  CG        20.2250   -6.2590    3.4800 C.2   373  ASN373      0.2627
     95  OD1       20.5170   -5.0470    3.3650 O.2   373  ASN373     -0.2716
     96  ND2       19.3100   -6.6440    4.3400 N.am  373  ASN373     -0.0877
     97  N         21.5380   -5.3920    0.2140 N.am  374  VAL374     -0.1966
     98  CA        21.9170   -4.1730   -0.5030 C.3   374  VAL374      0.1727
     99  C         22.1130   -2.9560    0.3890 C.2   374  VAL374      0.2616
    100  O         23.0430   -2.1370    0.1580 O.2   374  VAL374     -0.2715
    101  CB        20.9490   -3.8450   -1.6560 C.3   374  VAL374      0.0290
    102  CG1       19.5180   -3.4910   -1.2010 C.3   374  VAL374      0.0023
    103  CG2       21.5250   -2.7870   -2.6140 C.3   374  VAL374      0.0023
    104  N         21.2730   -2.8750    1.3910 N.am  375  ASP375     -0.1971
    105  CA        21.1880   -1.6960    2.2310 C.3   375  ASP375      0.1709
    106  C         22.4330   -1.4910    3.0790 C.2   375  ASP375      0.2293
    107  O         22.7760   -0.3230    3.3800 O.2   375  ASP375     -0.2864
    108  CB        19.9340   -1.8010    3.1120 C.3   375  ASP375      0.1436
    109  CG        18.6930   -1.7600    2.2260 C.2   375  ASP375      0.3671
    110  OD1       17.5790   -2.0590    2.7340 O.co2 375  ASP375     -0.2456
    111  OD2       18.7040   -1.0660    1.1800 O.co2 375  ASP375     -0.2456
    112  N         16.3520    4.8470   -3.5420 N.3   397  PHE397     -0.1241
    113  CA        15.8970    3.4480   -3.6160 C.3   397  PHE397      0.1605
    114  C         14.5120    3.4450   -4.2630 C.2   397  PHE397      0.2264
    115  O         14.2120    2.6530   -5.1930 O.2   397  PHE397     -0.2867
    116  CB        15.8520    2.8260   -2.1890 C.3   397  PHE397      0.0534
    117  CG        15.7030    1.2910   -2.1460 C.ar  397  PHE397     -0.0203
    118  CD1       15.3300    0.5800   -3.2650 C.ar  397  PHE397     -0.0042
    119  CD2       15.9870    0.6070   -0.9830 C.ar  397  PHE397     -0.0042
    120  CE1       15.2370   -0.8010   -3.2400 C.ar  397  PHE397     -0.0003
    121  CE2       15.9000   -0.7790   -0.9480 C.ar  397  PHE397     -0.0003
    122  CZ        15.5270   -1.4870   -2.0770 C.ar  397  PHE397     -0.0000
    123  N         13.3990    1.6210   -7.8130 N.3   401  ARG401     -0.1245
    124  CA        12.3740    0.5800   -7.6090 C.3   401  ARG401      0.1563
    125  C         11.1260    0.6910   -8.4900 C.2   401  ARG401      0.2260
    126  O         10.6440   -0.3590   -8.9870 O.2   401  ARG401     -0.2867
    127  CB        12.0560    0.3700   -6.1060 C.3   401  ARG401      0.0307
    128  CG        11.1830   -0.8650   -5.7680 C.3   401  ARG401      0.0489
    129  CD        11.4930   -2.1670   -6.5530 C.3   401  ARG401      0.2205
    130  NE        12.8380   -2.7210   -6.3230 N.pl3 401  ARG401     -0.0865
    131  CZ        13.2210   -3.4490   -5.2800 C.cat 401  ARG401      0.5346
    132  NH1       12.4410   -3.6720   -4.2320 N.pl3 401  ARG401      0.1354
    133  NH2       14.4840   -3.8030   -5.2100 N.pl3 401  ARG401      0.1354
@<TRIPOS>BOND
     1   126   125    2
     2   125   124    1
     3   123   124    1
     4   124   127    1
     5     1     2    1
     6     9    10    1
     7     2     3    1
     8     2     5    1
     9    10    11    1
    10    10    13    1
    11   129   130    1
    12   129   128    1
    13   130   131    2
    14    11    12    2
    15     3     4    2
    16   127   128    1
    17    83    84    1
    18    83    82    1
    19    84    85    1
    20     5     6    1
    21   131   133    1
    22   131   132    1
    23    13    14    1
    24    16    14   ar
    25    16    18   ar
    26   115   114    2
    27     7     6    1
    28    79    78    1
    29    79    82    1
    30    79    80    1
    31    14    15   ar
    32    19    20    1
    33    18    17   ar
    34     6     8    1
    35   114   113    1
    36    87    86    1
    37    85    86    2
    38    30    28   am
    39    81    80    2
    40   113   112    1
    41   113   116    1
    42    15    17   ar
    43    86    88    1
    44   118   120   ar
    45   118   117   ar
    46   120   122   ar
    47    20    21    1
    48    28    29    2
    49    28    27    1
    50   103   101    1
    51    23    21   am
    52    23    24    1
    53   116   117    1
    54   117   119   ar
    55   122   121   ar
    56    21    22    2
    57    26    25    2
    58    27    24    1
    59   101   102    1
    60   101    98    1
    61    76    75    1
    62    24    25    1
    63    25    31   am
    64   119   121   ar
    65    34    33    2
    66    33    32    1
    67    98    97    1
    68    98    99    1
    69    75    77    1
    70    75    72    1
    71    55    54   ar
    72    55    53   ar
    73    31    32    1
    74    64    65   ar
    75    64    62   ar
    76   100    99    2
    77    54    52   ar
    78    97    91   am
    79    65    63   ar
    80    99   104   am
    81    32    35    1
    82    74    73    2
    83    73    72    1
    84    62    61   ar
    85    72    71    1
    86    53    51   ar
    87   111   109   ar
    88    91    92    2
    89    91    90    1
    90    63    61   ar
    91   104   105    1
    92    52    51   ar
    93    61    60    1
    94    90    93    1
    95    90    89    1
    96    35    36    1
    97    35    37    1
    98    71    68   am
    99    51    50    1
   100   109   110   ar
   101   109   108    1
   102   105   106    1
   103   105   108    1
   104    93    94    1
   105    60    57    1
   106    68    69    2
   107    68    67    1
   108   106   107    2
   109    95    94    2
   110    94    96   am
   111    50    47    1
   112    48    47    1
   113    48    49    2
   114    66    67    1
   115    66    58   am
   116    67    70    1
   117    57    58    1
   118    57    56    1
   119    47    46    1
   120    58    59    2
   121    46    40   am
   122    41    40    2
   123    40    39    1
   124    39    38    1
   125    39    42    1
   126    42    43    1
   127    43    45    1
   128    43    44    1
