@<TRIPOS>MOLECULE
tmp/2ctsA00.pdb
 190 182 0 0 0
SMALL
GASTEIGER

@<TRIPOS>ATOM
      1  N          6.4740  -16.7450    4.9980 N.3    46  ARG46      -0.1245
      2  CA         7.8520  -17.2290    4.8020 C.3    46  ARG46       0.1563
      3  C          7.9770  -18.6430    4.2300 C.2    46  ARG46       0.2260
      4  O          7.6430  -19.6660    4.8900 O.2    46  ARG46      -0.2867
      5  CB         8.7430  -16.9880    6.0440 C.3    46  ARG46       0.0307
      6  CG        10.2470  -16.9060    5.6880 C.3    46  ARG46       0.0489
      7  CD        10.8960  -15.5950    6.1990 C.3    46  ARG46       0.2205
      8  NE        10.0020  -14.5150    5.7820 N.pl3  46  ARG46      -0.0865
      9  CZ         9.5230  -13.4420    6.3790 C.cat  46  ARG46       0.5346
     10  NH1        9.8440  -13.0310    7.6040 N.pl3  46  ARG46       0.1354
     11  NH2        8.3690  -13.1000    5.8460 N.pl3  46  ARG46       0.1354
     12  N         11.1030    0.4130    8.2300 N.2   272  PRO272     -0.2571
     13  CA        12.4680    0.1650    8.7550 C.3   272  PRO272      0.2026
     14  C         13.0540   -1.1840    8.3530 C.2   272  PRO272      0.2683
     15  O         14.2880   -1.3720    8.1630 O.2   272  PRO272     -0.2709
     16  CB        12.3940    0.3000   10.2830 C.2   272  PRO272      0.0085
     17  CG        11.0160    0.8940   10.6100 C.2   272  PRO272      0.0180
     18  CD        10.2130    0.9280    9.2950 C.2   272  PRO272      0.0938
     19  N         12.1600   -2.1010    8.2270 N.am  273  LEU273     -0.1973
     20  CA        12.5150   -3.4750    7.9600 C.3   273  LEU273      0.1596
     21  C         12.6470   -3.6830    6.4710 C.2   273  LEU273      0.2287
     22  O         12.9960   -4.8000    6.0230 O.2   273  LEU273     -0.2864
     23  CB        11.3640   -4.3530    8.4450 C.3   273  LEU273      0.0297
     24  CG        11.7300   -5.1240    9.7230 C.3   273  LEU273      0.0022
     25  CD1       12.4430   -4.2700   10.7920 C.3   273  LEU273      0.0001
     26  CD2       10.5220   -5.8950   10.2800 C.3   273  LEU273      0.0001
     27  N         16.1320    0.8450    5.6650 N.3   277  ALA277     -0.1245
     28  CA        17.4050    0.3790    6.2560 C.3   277  ALA277      0.1562
     29  C         18.6480    1.0750    5.7270 C.2   277  ALA277      0.2260
     30  O         19.7430    0.8940    6.3120 O.2   277  ALA277     -0.2867
     31  CB        17.6430   -1.1230    6.0410 C.3   277  ALA277      0.0290
     32  N         19.1100    3.7520    7.8690 N.3   280  GLU280     -0.1245
     33  CA        19.2310    3.1640    9.2020 C.3   280  GLU280      0.1567
     34  C         20.6420    2.6560    9.4430 C.2   280  GLU280      0.2260
     35  O         21.2550    3.1180   10.4320 O.2   280  GLU280     -0.2867
     36  CB        18.1480    2.1150    9.5960 C.3   280  GLU280      0.0388
     37  CG        16.6760    2.6150    9.6110 C.3   280  GLU280      0.1160
     38  CD        16.4580    3.7660   10.5910 C.2   280  GLU280      0.3649
     39  OE1       16.5530    3.5820   11.8280 O.co2 280  GLU280     -0.2457
     40  OE2       16.4740    4.9480   10.1810 O.co2 280  GLU280     -0.2457
     41  N         22.0190   -5.9690   19.7640 N.3   309  LEU309     -0.1245
     42  CA        21.2710   -7.2480   19.8650 C.3   309  LEU309      0.1561
     43  C         20.6720   -7.4700   21.2550 C.2   309  LEU309      0.2260
     44  O         19.4440   -7.6890   21.3920 O.2   309  LEU309     -0.2867
     45  CB        22.1970   -8.4370   19.5400 C.3   309  LEU309      0.0270
     46  CG        22.7890   -8.3740   18.1170 C.3   309  LEU309      0.0019
     47  CD1       24.0690   -9.2220   17.9930 C.3   309  LEU309      0.0001
     48  CD2       21.7560   -8.7240   17.0260 C.3   309  LEU309      0.0001
     49  N         17.0680   -4.6410   19.5310 N.3   313  ARG313     -0.1231
     50  CA        17.1800   -3.9330   18.2490 C.3   313  ARG313      0.1694
     51  C         17.7630   -4.9010   17.2310 C.2   313  ARG313      0.2592
     52  O         18.2110   -6.0090   17.6100 O.2   313  ARG313     -0.2718
     53  CB        18.0970   -2.6800   18.2790 C.3   313  ARG313      0.0321
     54  CG        17.3970   -1.3830   18.7560 C.3   313  ARG313      0.0489
     55  CD        17.8630   -0.8660   20.1410 C.3   313  ARG313      0.2205
     56  NE        19.1790   -0.2010   20.0870 N.pl3 313  ARG313     -0.0865
     57  CZ        19.6320    0.6170   21.0280 C.cat 313  ARG313      0.5346
     58  NH1       18.9130    0.8640   22.1090 N.pl3 313  ARG313      0.1354
     59  NH2       20.8070    1.2030   20.8930 N.pl3 313  ARG313      0.1354
     60  N         17.6890   -4.4830   15.9970 N.am  314  VAL314     -0.1966
     61  CA        18.1770   -5.1960   14.8270 C.3   314  VAL314      0.1727
     62  C         19.4240   -4.5140   14.2650 C.2   314  VAL314      0.2616
     63  O         19.5590   -3.2760   14.4070 O.2   314  VAL314     -0.2715
     64  CB        17.0290   -5.1790   13.7960 C.3   314  VAL314      0.0290
     65  CG1       17.1920   -4.2630   12.5650 C.3   314  VAL314      0.0023
     66  CG2       16.4500   -6.5700   13.4930 C.3   314  VAL314      0.0023
     67  N         20.3210   -5.3070   13.7030 N.am  315  VAL315     -0.1964
     68  CA        21.5100   -4.7640   13.0180 C.3   315  VAL315      0.1715
     69  C         21.2370   -4.4650   11.5510 C.2   315  VAL315      0.2496
     70  O         20.5890   -5.3050   10.8640 O.2   315  VAL315     -0.2727
     71  CB        22.7450   -5.6810   13.1560 C.3   315  VAL315      0.0289
     72  CG1       23.9550   -5.0700   12.4270 C.3   315  VAL315      0.0023
     73  CG2       23.0960   -5.9230   14.6340 C.3   315  VAL315      0.0023
     74  N         21.2850   -3.2020   11.1820 N.am  316  PRO316     -0.2490
     75  CA        20.6330   -2.7720    9.9440 C.3   316  PRO316      0.1619
     76  C         21.3610   -3.2850    8.7060 C.2   316  PRO316      0.2606
     77  O         22.6180   -3.3100    8.6450 O.2   316  PRO316     -0.2715
     78  CB        20.5940   -1.2350    9.9510 C.3   316  PRO316      0.0570
     79  CG        21.3170   -0.7770   11.2220 C.2   316  PRO316     -0.0077
     80  CD        21.7390   -2.0470   11.9810 C.2   316  PRO316      0.0634
     81  N         20.6620   -3.6090    7.6650 N.am  317  GLY317     -0.1940
     82  CA        21.4820   -3.8640    6.4880 C.3   317  GLY317      0.2014
     83  C         22.0550   -5.2730    6.4590 C.2   317  GLY317      0.2639
     84  O         22.6580   -5.6570    5.4290 O.2   317  GLY317     -0.2714
     85  N         21.7590   -6.0300    7.4990 N.am  318  TYR318     -0.1959
     86  CA        22.0920   -7.4560    7.5910 C.3   318  TYR318      0.1771
     87  C         20.8670   -8.3460    7.6670 C.2   318  TYR318      0.2620
     88  O         19.8990   -8.0540    8.4120 O.2   318  TYR318     -0.2715
     89  CB        22.9910   -7.7790    8.7960 C.3   318  TYR318      0.0574
     90  CG        24.4580   -7.4520    8.4680 C.ar  318  TYR318     -0.0198
     91  CD1       25.3190   -8.4820    8.1740 C.ar  318  TYR318     -0.0009
     92  CD2       24.8930   -6.1490    8.4040 C.ar  318  TYR318     -0.0009
     93  CE1       26.6240   -8.2150    7.8020 C.ar  318  TYR318      0.0417
     94  CE2       26.2000   -5.8690    8.0290 C.ar  318  TYR318      0.0417
     95  CZ        27.0620   -6.9080    7.7210 C.ar  318  TYR318      0.1957
     96  OH        28.4000   -6.6390    7.2940 O.3   318  TYR318     -0.2866
     97  N         20.9520   -9.4110    6.9200 N.am  319  GLY319     -0.1940
     98  CA        19.8660  -10.3610    6.8180 C.3   319  GLY319      0.2014
     99  C         19.0560  -10.1310    5.5610 C.2   319  GLY319      0.2639
    100  O         19.3500   -9.1930    4.7850 O.2   319  GLY319     -0.2714
    101  N         18.1900  -11.0720    5.3370 N.am  320  HIS320     -0.1959
    102  CA        17.2650  -11.1040    4.2110 C.3   320  HIS320      0.1787
    103  C         16.2190  -12.1930    4.4030 C.2   320  HIS320      0.2620
    104  O         16.5570  -13.2540    4.9890 O.2   320  HIS320     -0.2715
    105  CB        18.0400  -11.3370    2.9010 C.3   320  HIS320      0.0785
    106  CG        17.2280  -10.7490    1.7410 C.ar  320  HIS320      0.0821
    107  ND1       16.4240  -11.5710    0.9590 N.ar  320  HIS320     -0.2267
    108  CD2       17.0790   -9.4730    1.3490 C.ar  320  HIS320      0.1154
    109  CE1       15.7520  -10.7650    0.0330 C.ar  320  HIS320      0.1986
    110  NE2       16.1630   -9.4400    0.2890 N.ar  320  HIS320     -0.2212
    111  N         15.0090  -11.9620    3.9470 N.am  321  ALA321     -0.1977
    112  CA        13.9670  -12.9880    4.0270 C.3   321  ALA321      0.1597
    113  C         14.0460  -14.1560    3.0420 C.2   321  ALA321      0.2287
    114  O         13.4930  -15.2370    3.3820 O.2   321  ALA321     -0.2864
    115  CB        12.5570  -12.3690    4.0470 C.3   321  ALA321      0.0319
    116  N         20.2190  -16.4360    1.1830 N.3   324  ARG324     -0.1245
    117  CA        20.8690  -17.2030    2.2270 C.3   324  ARG324      0.1563
    118  C         22.3780  -17.0890    2.1860 C.2   324  ARG324      0.2260
    119  O         23.0430  -17.6420    3.0960 O.2   324  ARG324     -0.2867
    120  CB        20.4530  -18.6710    2.1470 C.3   324  ARG324      0.0307
    121  CG        18.9870  -18.7930    2.5780 C.3   324  ARG324      0.0489
    122  CD        18.7660  -18.3170    4.0270 C.3   324  ARG324      0.2205
    123  NE        17.3230  -18.1950    4.2550 N.pl3 324  ARG324     -0.0865
    124  CZ        16.7200  -17.0480    4.4930 C.cat 324  ARG324      0.5346
    125  NH1       17.4000  -15.9340    4.4890 N.pl3 324  ARG324      0.1354
    126  NH2       15.4260  -16.9740    4.6800 N.pl3 324  ARG324      0.1354
    127  N         26.2640  -12.5180   14.4430 N.3   361  LEU361     -0.1245
    128  CA        24.9310  -12.9990   14.1060 C.3   361  LEU361      0.1561
    129  C         24.8260  -14.5190   14.1540 C.2   361  LEU361      0.2260
    130  O         23.6930  -15.0370   14.3240 O.2   361  LEU361     -0.2867
    131  CB        24.5130  -12.4620   12.7250 C.3   361  LEU361      0.0270
    132  CG        24.0080  -11.0130   12.8350 C.3   361  LEU361      0.0019
    133  CD1       23.8380  -10.3740   11.4470 C.3   361  LEU361      0.0001
    134  CD2       22.7040  -10.9520   13.6550 C.3   361  LEU361      0.0001
    135  N         24.8910  -15.5240   17.8120 N.3   364  GLN364     -0.1245
    136  CA        23.6060  -15.3170   18.4980 C.3   364  GLN364      0.1566
    137  C         22.5620  -16.3800   18.1730 C.2   364  GLN364      0.2260
    138  O         21.5650  -16.5430   18.9260 O.2   364  GLN364     -0.2867
    139  CB        23.0120  -13.9700   18.1160 C.3   364  GLN364      0.0367
    140  CG        21.9350  -13.5740   19.1240 C.3   364  GLN364      0.0905
    141  CD        21.2760  -12.3550   18.5220 C.2   364  GLN364      0.2608
    142  OE1       20.5090  -11.6710   19.2390 O.2   364  GLN364     -0.2717
    143  NE2       21.2190  -12.4430   17.2070 N.am  364  GLN364     -0.0878
    144  N         20.4190  -16.7180   15.9240 N.3   366  LYS366     -0.1231
    145  CA        19.0600  -16.2940   15.6190 C.3   366  LYS366      0.1693
    146  C         18.8240  -16.1720   14.1220 C.2   366  LYS366      0.2592
    147  O         17.6990  -16.4420   13.6410 O.2   366  LYS366     -0.2718
    148  CB        18.8320  -14.9090   16.2130 C.3   366  LYS366      0.0285
    149  CG        17.3950  -14.7390   16.7110 C.3   366  LYS366      0.0035
    150  CD        17.3350  -13.5630   17.6920 C.3   366  LYS366      0.0206
    151  CE        15.8960  -13.2730   18.1260 C.3   366  LYS366      0.1093
    152  NZ        15.8030  -11.8990   18.6170 N.3   366  LYS366     -0.1314
    153  N         19.7650  -15.4990   13.4910 N.am  367  ALA367     -0.1966
    154  CA        19.5420  -15.0620   12.1100 C.3   367  ALA367      0.1728
    155  C         19.6760  -16.2490   11.1930 C.2   367  ALA367      0.2616
    156  O         20.7140  -16.9480   11.2950 O.2   367  ALA367     -0.2715
    157  CB        20.5710  -14.0280   11.6150 C.3   367  ALA367      0.0334
    158  N         18.7510  -16.4070   10.2870 N.am  368  LYS368     -0.1963
    159  CA        18.8870  -17.4960    9.3290 C.3   368  LYS368      0.1728
    160  C         19.8020  -17.1060    8.1870 C.2   368  LYS368      0.2616
    161  O         20.4600  -17.9940    7.5760 O.2   368  LYS368     -0.2715
    162  CB        17.5110  -17.8980    8.7750 C.3   368  LYS368      0.0311
    163  CG        17.6130  -19.0460    7.7520 C.3   368  LYS368      0.0038
    164  CD        16.2340  -19.4330    7.1830 C.3   368  LYS368      0.0206
    165  CE        16.3460  -20.5860    6.1600 C.3   368  LYS368      0.1093
    166  NZ        15.0310  -20.9390    5.6080 N.3   368  LYS368     -0.1314
    167  N         19.8650  -15.8170    7.9270 N.am  369  ASN369     -0.1972
    168  CA        20.8200  -15.2160    6.9780 C.3   369  ASN369      0.1688
    169  C         21.7360  -14.1720    7.6200 C.2   369  ASN369      0.2292
    170  O         21.3610  -12.9720    7.6330 O.2   369  ASN369     -0.2864
    171  CB        20.0520  -14.4930    5.8600 C.3   369  ASN369      0.1181
    172  CG        21.0560  -14.0150    4.8230 C.2   369  ASN369      0.2629
    173  OD1       21.9490  -14.8190    4.4670 O.2   369  ASN369     -0.2716
    174  ND2       20.5510  -13.1350    4.0000 N.am  369  ASN369     -0.0877
    175  N         22.8950   -7.3510    2.9920 N.3   373  ASN373     -0.1240
    176  CA        21.9740   -7.1220    1.8670 C.3   373  ASN373      0.1653
    177  C         22.2920   -5.7870    1.2100 C.2   373  ASN373      0.2266
    178  O         23.3210   -5.1790    1.6000 O.2   373  ASN373     -0.2867
    179  CB        20.4900   -7.2010    2.3060 C.3   373  ASN373      0.1155
    180  CG        20.2250   -6.2590    3.4800 C.2   373  ASN373      0.2627
    181  OD1       20.5170   -5.0470    3.3650 O.2   373  ASN373     -0.2716
    182  ND2       19.3100   -6.6440    4.3400 N.am  373  ASN373     -0.0877
    183  N         21.2730   -2.8750    1.3910 N.3   375  ASP375     -0.1239
    184  CA        21.1880   -1.6960    2.2310 C.3   375  ASP375      0.1674
    185  C         22.4330   -1.4910    3.0790 C.2   375  ASP375      0.2266
    186  O         22.7760   -0.3230    3.3800 O.2   375  ASP375     -0.2867
    187  CB        19.9340   -1.8010    3.1120 C.3   375  ASP375      0.1410
    188  CG        18.6930   -1.7600    2.2260 C.2   375  ASP375      0.3668
    189  OD1       17.5790   -2.0590    2.7340 O.co2 375  ASP375     -0.2456
    190  OD2       18.7040   -1.0660    1.1800 O.co2 375  ASP375     -0.2456
@<TRIPOS>BOND
     1   109   110   ar
     2   109   107   ar
     3   110   108   ar
     4   107   106   ar
     5   190   188   ar
     6   116   117    1
     7   177   178    2
     8   177   176    1
     9   108   106   ar
    10   183   184    1
    11   106   105    1
    12   176   179    1
    13   176   175    1
    14   120   117    1
    15   120   121    1
    16   118   117    1
    17   118   119    2
    18   188   189   ar
    19   188   187    1
    20   184   185    1
    21   184   187    1
    22   179   180    1
    23   121   122    1
    24   105   102    1
    25   113   114    2
    26   113   112    1
    27   185   186    2
    28   181   180    2
    29   180   182   am
    30   111   112    1
    31   111   103   am
    32   174   172   am
    33   122   123    1
    34   112   115    1
    35   102   103    1
    36   102   101    1
    37     3     2    1
    38     3     4    2
    39   123   124    2
    40   103   104    2
    41   173   172    2
    42   125   124    1
    43   124   126    1
    44   100    99    2
    45     2     1    1
    46     2     5    1
    47   172   171    1
    48   101    99   am
    49    84    83    2
    50    99    98    1
    51   166   165    1
    52    27    28    1
    53     6     5    1
    54     6     7    1
    55    29    28    1
    56    29    30    2
    57     8     7    1
    58     8     9    2
    59    11     9    1
    60   171   168    1
    61    22    21    2
    62    31    28    1
    63   165   164    1
    64     9    10    1
    65    83    82    1
    66    83    85   am
    67    21    20    1
    68    82    81    1
    69    98    97    1
    70    97    87   am
    71   168   169    1
    72   168   167    1
    73   164   163    1
    74    96    95    1
    75    85    86    1
    76   161   160    2
    77    86    87    1
    78    86    89    1
    79   169   170    2
    80    81    76   am
    81    87    88    2
    82    95    93   ar
    83    95    94   ar
    84   163   162    1
    85    93    91   ar
    86    32    33    1
    87   167   160   am
    88    20    19    1
    89    20    23    1
    90    94    92   ar
    91    15    14    2
    92    91    90   ar
    93   160   159    1
    94    19    14   am
    95    12    13    1
    96    12    18    2
    97    14    13    1
    98    92    90   ar
    99    23    24    1
   100    90    89    1
   101    77    76    2
   102    76    75    1
   103    13    16    1
   104   162   159    1
   105    33    34    1
   106    33    36    1
   107    18    17    1
   108   159   158    1
   109    34    35    2
   110    36    37    1
   111    37    38    1
   112    24    26    1
   113    24    25    1
   114    75    78    1
   115    75    74    1
   116    78    79    1
   117    40    38   ar
   118    16    17    2
   119   158   155   am
   120    38    39   ar
   121    70    69    2
   122    74    69   am
   123    74    80    1
   124   155   156    2
   125   155   154    1
   126    79    80    2
   127   133   132    1
   128    69    68    1
   129   157   154    1
   130   154   153    1
   131    72    71    1
   132    65    64    1
   133   131   132    1
   134   131   128    1
   135   132   134    1
   136    68    71    1
   137    68    67    1
   138    71    73    1
   139   153   146   am
   140    66    64    1
   141   147   146    2
   142    67    62   am
   143    64    61    1
   144   128   129    1
   145   128   127    1
   146   146   145    1
   147   129   130    2
   148    62    63    2
   149    62    61    1
   150    61    60    1
   151   145   144    1
   152   145   148    1
   153    60    51   am
   154   148   149    1
   155   149   150    1
   156    48    46    1
   157   143   141   am
   158    51    52    2
   159    51    50    1
   160   150   151    1
   161   135   136    1
   162    47    46    1
   163   139   136    1
   164   139   140    1
   165    46    45    1
   166   151   152    1
   167   137   136    1
   168   137   138    2
   169    50    53    1
   170    50    49    1
   171    53    54    1
   172   141   140    1
   173   141   142    2
   174    54    55    1
   175    45    42    1
   176    41    42    1
   177    42    43    1
   178    56    55    1
   179    56    57    2
   180    59    57    1
   181    57    58    1
   182    43    44    2
