@<TRIPOS>MOLECULE
tmp/2ctzB00.pdb
 120 112 0 0 0
SMALL
GASTEIGER

@<TRIPOS>ATOM
      1  N         61.9330   86.4880  127.6850 N.3    81  SER81      -0.1202
      2  CA        61.1380   85.7450  126.6520 C.3    81  SER81       0.2020
      3  C         60.7190   86.7060  125.5630 C.2    81  SER81       0.2619
      4  O         60.8230   87.9320  125.7530 O.2    81  SER81      -0.2717
      5  CB        59.8770   85.1250  127.2600 C.3    81  SER81       0.2103
      6  OG        58.9780   86.1390  127.7140 O.3    81  SER81      -0.2182
      7  N         60.2870   86.1840  124.4080 N.am   82  GLY82      -0.1942
      8  CA        59.7380   87.0800  123.3410 C.3    82  GLY82       0.2014
      9  C         58.5590   87.9520  123.8910 C.2    82  GLY82       0.2638
     10  O         58.5490   89.1940  123.6790 O.2    82  GLY82      -0.2714
     11  N         57.5920   87.3370  124.6240 N.am   83  HIS83      -0.1973
     12  CA        56.5020   88.1120  125.2090 C.3    83  HIS83       0.1656
     13  C         57.1540   89.2270  126.0220 C.2    83  HIS83       0.2291
     14  O         56.7380   90.3850  125.9050 O.2    83  HIS83      -0.2864
     15  CB        55.6580   87.3410  126.1900 C.3    83  HIS83       0.0771
     16  CG        54.6290   86.4190  125.5910 C.ar   83  HIS83       0.0820
     17  ND1       54.9580   85.2200  124.9770 N.ar   83  HIS83      -0.2267
     18  CD2       53.2810   86.4190  125.6920 C.ar   83  HIS83       0.1154
     19  CE1       53.8550   84.5870  124.6250 C.ar   83  HIS83       0.1986
     20  NE2       52.8230   85.3120  125.0220 N.ar   83  HIS83      -0.2212
     21  N         58.3350   92.1600  123.8880 N.3    86  GLN86      -0.1245
     22  CA        57.2070   92.9550  123.3980 C.3    86  GLN86       0.1566
     23  C         56.5900   93.8480  124.5150 C.2    86  GLN86       0.2260
     24  O         56.3910   95.0350  124.3640 O.2    86  GLN86      -0.2867
     25  CB        56.1340   92.0560  122.8250 C.3    86  GLN86       0.0367
     26  CG        56.6680   91.3030  121.6370 C.3    86  GLN86       0.0905
     27  CD        55.7110   90.2810  121.1700 C.2    86  GLN86       0.2608
     28  OE1       54.5830   90.1840  121.7200 O.2    86  GLN86      -0.2717
     29  NE2       56.0980   89.4930  120.1880 N.am   86  GLN86      -0.0878
     30  N         50.6640   86.4840  116.1160 N.3   107  TYR107     -0.1241
     31  CA        50.9660   85.2850  116.9440 C.3   107  TYR107      0.1605
     32  C         49.8770   85.1990  118.0530 C.2   107  TYR107      0.2264
     33  O         49.4340   86.2530  118.6170 O.2   107  TYR107     -0.2867
     34  CB        52.3930   85.4310  117.5230 C.3   107  TYR107      0.0534
     35  CG        52.7950   84.4570  118.6580 C.ar  107  TYR107     -0.0201
     36  CD1       53.0290   83.0790  118.3770 C.ar  107  TYR107     -0.0009
     37  CD2       52.9970   84.9100  120.0300 C.ar  107  TYR107     -0.0009
     38  CE1       53.3890   82.1310  119.4420 C.ar  107  TYR107      0.0417
     39  CE2       53.3680   83.9500  121.1240 C.ar  107  TYR107      0.0417
     40  CZ        53.5480   82.5740  120.8110 C.ar  107  TYR107      0.1957
     41  OH        53.9090   81.6170  121.7310 O.3   107  TYR107     -0.2866
     42  N         50.6660   87.0930  121.1820 N.3   110  THR110     -0.1218
     43  CA        50.7780   88.5380  121.1860 C.3   110  THR110      0.1862
     44  C         49.4300   89.2920  121.0780 C.2   110  THR110      0.2287
     45  O         49.2770   90.3980  121.6380 O.2   110  THR110     -0.2866
     46  CB        52.0360   89.1720  120.4360 C.3   110  THR110      0.1770
     47  OG1       51.7110   90.4550  119.8780 O.3   110  THR110     -0.2211
     48  CG2       52.6820   88.3090  119.3880 C.3   110  THR110      0.0375
     49  N         54.3020   92.2740  112.2160 N.3   151  GLU151     -0.1245
     50  CA        55.1910   91.1000  112.2390 C.3   151  GLU151      0.1567
     51  C         55.7850   90.8930  110.8560 C.2   151  GLU151      0.2260
     52  O         55.1390   91.1940  109.8630 O.2   151  GLU151     -0.2867
     53  CB        54.3890   89.8350  112.5410 C.3   151  GLU151      0.0388
     54  CG        53.8580   89.8010  113.9590 C.3   151  GLU151      0.1160
     55  CD        53.2290   88.4750  114.3750 C.2   151  GLU151      0.3649
     56  OE1       52.6150   88.5110  115.4700 O.co2 151  GLU151     -0.2457
     57  OE2       53.3170   87.4110  113.6440 O.co2 151  GLU151     -0.2457
     58  N         58.0410   92.7620  114.7600 N.3   180  ASP180     -0.1239
     59  CA        58.3410   91.5260  115.3520 C.3   180  ASP180      0.1674
     60  C         58.9430   90.6920  114.2710 C.2   180  ASP180      0.2266
     61  O         58.2580   90.1180  113.4500 O.2   180  ASP180     -0.2867
     62  CB        57.0990   90.8800  115.8790 C.3   180  ASP180      0.1410
     63  CG        57.3750   89.4550  116.3920 C.2   180  ASP180      0.3668
     64  OD1       58.5140   88.9450  116.2340 O.co2 180  ASP180     -0.2456
     65  OD2       56.4580   88.8070  116.9190 O.co2 180  ASP180     -0.2456
     66  N         60.6180   87.9400  114.6070 N.3   182  THR182     -0.1203
     67  CA        60.8980   86.5770  114.8760 C.3   182  THR182      0.1994
     68  C         61.0180   85.7160  113.6370 C.2   182  THR182      0.2617
     69  O         61.9940   84.9560  113.5300 O.2   182  THR182     -0.2717
     70  CB        60.2450   85.9130  116.1460 C.3   182  THR182      0.1784
     71  OG1       59.6250   84.6770  115.8420 O.3   182  THR182     -0.2211
     72  CG2       59.4630   86.7710  117.0560 C.3   182  THR182      0.0376
     73  N         60.1190   85.8460  112.6470 N.am  183  PHE183     -0.1975
     74  CA        60.0930   84.8420  111.5260 C.3   183  PHE183      0.1639
     75  C         61.2040   85.1870  110.5640 C.2   183  PHE183      0.2290
     76  O         61.5100   84.3940  109.6730 O.2   183  PHE183     -0.2864
     77  CB        58.7480   84.8350  110.7950 C.3   183  PHE183      0.0560
     78  CG        57.7090   83.8690  111.3650 C.ar  183  PHE183     -0.0200
     79  CD1       57.0970   82.9080  110.5300 C.ar  183  PHE183     -0.0042
     80  CD2       57.2840   83.9410  112.6770 C.ar  183  PHE183     -0.0042
     81  CE1       56.0530   81.9890  111.0330 C.ar  183  PHE183     -0.0003
     82  CE2       56.2890   83.0310  113.1910 C.ar  183  PHE183     -0.0003
     83  CZ        55.6940   82.0590  112.3760 C.ar  183  PHE183     -0.0000
     84  N         61.3340   86.7810  119.4940 N.3   203  SER203     -0.1217
     85  CA        61.3060   85.6510  120.4060 C.3   203  SER203      0.1889
     86  C         62.5250   84.7950  119.9950 C.2   203  SER203      0.2288
     87  O         62.5160   84.0820  118.9390 O.2   203  SER203     -0.2866
     88  CB        60.0490   84.8620  120.2090 C.3   203  SER203      0.2089
     89  OG        60.1800   83.5600  120.7750 O.3   203  SER203     -0.2183
     90  N         63.5370   82.4920  121.4250 N.3   205  THR205     -0.1203
     91  CA        63.1510   81.1210  121.6990 C.3   205  THR205      0.1994
     92  C         62.9310   80.2550  120.4620 C.2   205  THR205      0.2617
     93  O         63.1410   79.0030  120.4260 O.2   205  THR205     -0.2717
     94  CB        62.1030   81.1040  122.8110 C.3   205  THR205      0.1784
     95  OG1       61.1300   80.1460  122.5290 O.3   205  THR205     -0.2211
     96  CG2       61.5410   82.3330  123.0130 C.3   205  THR205      0.0376
     97  N         62.6400   80.9450  119.3770 N.am  206  LYS206     -0.1979
     98  CA        62.4170   80.3000  118.1210 C.3   206  LYS206      0.1596
     99  C         63.7320   80.1100  117.3290 C.2   206  LYS206      0.2287
    100  O         64.5770   79.4000  117.8030 O.2   206  LYS206     -0.2864
    101  CB        61.3880   81.0810  117.3380 C.3   206  LYS206      0.0298
    102  CG        60.1130   80.5460  117.5400 C.3   206  LYS206      0.0038
    103  CD        59.5720   81.1340  118.7140 C.3   206  LYS206      0.0206
    104  CE        58.3900   80.3980  119.1730 C.3   206  LYS206      0.1093
    105  NZ        57.3560   81.5380  119.2760 N.3   206  LYS206     -0.1314
    106  N         64.0820   79.6960  126.4680 N.3   215  ILE215     -0.1245
    107  CA        63.1270   80.7240  126.2400 C.3   215  ILE215      0.1561
    108  C         63.8190   82.0340  126.4400 C.2   215  ILE215      0.2260
    109  O         64.5110   82.2070  127.4200 O.2   215  ILE215     -0.2867
    110  CB        61.9940   80.5920  127.2590 C.3   215  ILE215      0.0252
    111  CG1       61.2410   79.2660  127.0030 C.3   215  ILE215      0.0019
    112  CG2       61.0620   81.8700  127.2610 C.3   215  ILE215      0.0019
    113  CD1       60.1810   79.1140  128.0420 C.3   215  ILE215      0.0001
    114  N         57.1620   76.7930  117.2140 N.3   367  VAL367     -0.1245
    115  CA        57.8020   76.7800  115.9000 C.3   367  VAL367      0.1561
    116  C         59.3110   76.9940  116.1240 C.2   367  VAL367      0.2260
    117  O         59.7060   77.4460  117.1670 O.2   367  VAL367     -0.2867
    118  CB        57.2520   77.9270  114.9060 C.3   367  VAL367      0.0252
    119  CG1       55.7250   77.8480  114.7240 C.3   367  VAL367      0.0019
    120  CG2       57.5980   79.2950  115.3520 C.3   367  VAL367      0.0019
@<TRIPOS>BOND
     1    76    75    2
     2    52    51    2
     3    79    81   ar
     4    79    78   ar
     5    75    74    1
     6    77    78    1
     7    77    74    1
     8    51    50    1
     9    81    83   ar
    10    78    80   ar
    11    74    73    1
    12    49    50    1
    13    50    53    1
    14    83    82   ar
    15    53    54    1
    16    73    68   am
    17    80    82   ar
    18    61    60    2
    19    69    68    2
    20    68    67    1
    21    57    55   ar
    22    54    55    1
    23    60    59    1
    24    55    56   ar
    25    66    67    1
    26   119   118    1
    27    58    59    1
    28    67    70    1
    29   118   120    1
    30   118   115    1
    31    59    62    1
    32    71    70    1
    33    62    63    1
    34   115   116    1
    35   115   114    1
    36    30    31    1
    37   116   117    2
    38    70    72    1
    39    64    63   ar
    40    63    65   ar
    41    31    34    1
    42    31    32    1
    43    99   100    2
    44    99    98    1
    45   101   102    1
    46   101    98    1
    47    34    35    1
    48   102   103    1
    49    32    33    2
    50    98    97    1
    51    36    35   ar
    52    36    38   ar
    53    35    37   ar
    54   103   104    1
    55    87    86    2
    56   104   105    1
    57    97    92   am
    58    48    46    1
    59    38    40   ar
    60    84    85    1
    61    47    46    1
    62    86    85    1
    63    37    39   ar
    64    29    27   am
    65    88    85    1
    66    88    89    1
    67    93    92    2
    68    46    43    1
    69    92    91    1
    70    40    39   ar
    71    40    41    1
    72    44    43    1
    73    44    45    2
    74    27    26    1
    75    27    28    2
    76    42    43    1
    77    90    91    1
    78    26    25    1
    79    91    94    1
    80    95    94    1
    81    94    96    1
    82    25    22    1
    83     8     9    1
    84     8     7    1
    85    22    21    1
    86    22    23    1
    87    10     9    2
    88     9    11   am
    89    24    23    2
    90     7     3   am
    91    11    12    1
    92    19    17   ar
    93    19    20   ar
    94    17    16   ar
    95    20    18   ar
    96    12    13    1
    97    12    15    1
    98     3     4    2
    99     3     2    1
   100    16    18   ar
   101    16    15    1
   102    14    13    2
   103   107   108    1
   104   107   106    1
   105   107   110    1
   106   108   109    2
   107     2     5    1
   108     2     1    1
   109   111   110    1
   110   111   113    1
   111   110   112    1
   112     5     6    1
