@<TRIPOS>MOLECULE
tmp/2cu0A00.pdb
 195 183 0 0 0
SMALL
GASTEIGER

@<TRIPOS>ATOM
      1  N         30.0420    5.3420   48.7230 N.3    51  ALA51      -0.1231
      2  CA        30.1340    3.9070   48.9410 C.3    51  ALA51       0.1694
      3  C         31.3490    3.2520   48.2850 C.2    51  ALA51       0.2592
      4  O         31.8440    3.7070   47.2500 O.2    51  ALA51      -0.2718
      5  CB        28.8380    3.2260   48.4540 C.3    51  ALA51       0.0304
      6  N         31.8230    2.1750   48.9020 N.am   52  ALA52      -0.1966
      7  CA        32.9700    1.4370   48.3840 C.3    52  ALA52       0.1728
      8  C         32.4480    0.3540   47.4410 C.2    52  ALA52       0.2616
      9  O         32.5360   -0.8360   47.7310 O.2    52  ALA52      -0.2715
     10  CB        33.7400    0.8160   49.5300 C.3    52  ALA52       0.0334
     11  N         31.9040    0.7830   46.3100 N.am   53  MET53      -0.1977
     12  CA        31.3310   -0.1290   45.3300 C.3    53  MET53       0.1605
     13  C         31.9670    0.1140   43.9710 C.2    53  MET53       0.2287
     14  O         32.3220    1.2530   43.6490 O.2    53  MET53      -0.2864
     15  CB        29.8220    0.1030   45.2710 C.3    53  MET53       0.0413
     16  CG        29.1460   -0.0920   46.6240 C.3    53  MET53       0.0598
     17  SD        27.4400    0.4420   46.6150 S.3    53  MET53      -0.1393
     18  CE        26.7280   -0.8490   45.5430 C.3    53  MET53       0.0692
     19  N         35.4300   -3.5570   55.2250 N.3   135  ASP135     -0.1239
     20  CA        34.1720   -3.6850   54.4940 C.3   135  ASP135      0.1674
     21  C         33.5990   -5.1060   54.4240 C.2   135  ASP135      0.2266
     22  O         33.9610   -5.8830   53.5430 O.2   135  ASP135     -0.2867
     23  CB        34.4280   -3.1140   53.0910 C.3   135  ASP135      0.1410
     24  CG        33.3040   -3.3860   52.1070 C.2   135  ASP135      0.3668
     25  OD1       32.1230   -3.1530   52.4550 O.co2 135  ASP135     -0.2456
     26  OD2       33.6180   -3.8110   50.9660 O.co2 135  ASP135     -0.2456
     27  N         29.8780   -7.7550   55.2170 N.3   137  ALA137     -0.1245
     28  CA        28.4280   -7.8200   55.3490 C.3   137  ALA137      0.1562
     29  C         27.9830   -7.9310   56.8060 C.2   137  ALA137      0.2260
     30  O         26.9780   -7.3420   57.1980 O.2   137  ALA137     -0.2867
     31  CB        27.8880   -9.0040   54.5510 C.3   137  ALA137      0.0290
     32  N         29.8200   -3.7490   58.2310 N.3   163  ASN163     -0.1240
     33  CA        28.6510   -3.1020   58.8440 C.3   163  ASN163      0.1653
     34  C         28.0510   -3.9410   60.0000 C.2   163  ASN163      0.2266
     35  O         28.2060   -5.1540   60.0710 O.2   163  ASN163     -0.2867
     36  CB        27.5770   -2.9610   57.7470 C.3   163  ASN163      0.1155
     37  CG        27.9420   -1.8890   56.7390 C.2   163  ASN163      0.2627
     38  OD1       29.0650   -1.3910   56.6720 O.2   163  ASN163     -0.2716
     39  ND2       26.9370   -1.5360   55.9230 N.am  163  ASN163     -0.0877
     40  N         30.2630    1.2790   61.0400 N.3   180  LYS180     -0.1245
     41  CA        29.3410    1.6010   59.9650 C.3   180  LYS180      0.1561
     42  C         28.0770    0.7720   60.1770 C.2   180  LYS180      0.2260
     43  O         28.1280   -0.4510   60.3140 O.2   180  LYS180     -0.2867
     44  CB        29.9900    1.2950   58.6160 C.3   180  LYS180      0.0271
     45  CG        29.2920    1.9430   57.4390 C.3   180  LYS180      0.0035
     46  CD        30.3070    2.4800   56.4280 C.3   180  LYS180      0.0206
     47  CE        31.1230    1.3590   55.8050 C.3   180  LYS180      0.1093
     48  NZ        30.2450    0.3800   55.0990 N.3   180  LYS180     -0.1314
     49  N         20.9300   -4.5930   55.3640 N.3   184  GLY184     -0.1225
     50  CA        19.7000   -4.7690   54.6110 C.3   184  GLY184      0.1811
     51  C         18.9690   -3.5680   54.0140 C.2   184  GLY184      0.2280
     52  O         18.0590   -3.7790   53.2220 O.2   184  GLY184     -0.2866
     53  N         20.1530   -1.1230   51.8620 N.3   186  GLY186     -0.1210
     54  CA        20.6250   -0.6920   50.5550 C.3   186  GLY186      0.1956
     55  C         19.6290   -0.8070   49.4140 C.2   186  GLY186      0.2613
     56  O         18.8360   -1.7460   49.3590 O.2   186  GLY186     -0.2717
     57  N         19.6700    0.1520   48.4920 N.am  187  SER187     -0.1938
     58  CA        18.7650    0.1460   47.3460 C.3   187  SER187      0.2055
     59  C         18.8900   -1.1340   46.5090 C.2   187  SER187      0.2643
     60  O         17.9050   -1.5910   45.9410 O.2   187  SER187     -0.2714
     61  CB        19.0080    1.3770   46.4540 C.3   187  SER187      0.2130
     62  OG        20.2950    1.3530   45.8530 O.3   187  SER187     -0.2179
     63  N         20.0870   -1.7120   46.4250 N.am  188  ILE188     -0.1963
     64  CA        20.2680   -2.9390   45.6450 C.3   188  ILE188      0.1727
     65  C         20.4900   -4.1590   46.5340 C.2   188  ILE188      0.2616
     66  O         20.9600   -5.2010   46.0810 O.2   188  ILE188     -0.2715
     67  CB        21.4660   -2.8270   44.6410 C.3   188  ILE188      0.0290
     68  CG1       22.7050   -2.2370   45.3280 C.3   188  ILE188      0.0022
     69  CG2       21.0630   -1.9690   43.4520 C.3   188  ILE188      0.0023
     70  CD1       23.2440   -3.0490   46.4950 C.3   188  ILE188      0.0001
     71  N         20.1210   -4.0310   47.7990 N.am  189  CYS189     -0.1968
     72  CA        20.3280   -5.1010   48.7650 C.3   189  CYS189      0.1712
     73  C         19.1630   -6.0780   48.8860 C.2   189  CYS189      0.2296
     74  O         18.0040   -5.6720   48.9350 O.2   189  CYS189     -0.2864
     75  CB        20.6280   -4.4660   50.1250 C.3   189  CYS189      0.0983
     76  SG        21.0250   -5.6090   51.4340 S.3   189  CYS189     -0.0798
     77  N         19.6840   -8.8500   51.1210 N.3   191  THR191     -0.1218
     78  CA        20.0420   -9.6170   52.3070 C.3   191  THR191      0.1862
     79  C         18.8440   -9.9670   53.1770 C.2   191  THR191      0.2287
     80  O         18.7740  -11.0660   53.7220 O.2   191  THR191     -0.2866
     81  CB        21.0750   -8.8630   53.1710 C.3   191  THR191      0.1770
     82  OG1       22.2880   -8.7190   52.4250 O.3   191  THR191     -0.2211
     83  CG2       21.3780   -9.6380   54.4580 C.3   191  THR191      0.0375
     84  N         24.9630    3.7290   56.8670 N.3   222  ASP222     -0.1225
     85  CA        25.1900    3.2420   55.5150 C.3   222  ASP222      0.1805
     86  C         24.0340    2.5210   54.8290 C.2   222  ASP222      0.2598
     87  O         23.6040    1.4560   55.2700 O.2   222  ASP222     -0.2718
     88  CB        26.4270    2.3420   55.5500 C.3   222  ASP222      0.1424
     89  CG        26.8380    1.8540   54.1860 C.2   222  ASP222      0.3668
     90  OD1       26.4250    2.4690   53.1810 O.co2 222  ASP222     -0.2456
     91  OD2       27.5900    0.8610   54.1270 O.co2 222  ASP222     -0.2456
     92  N         23.5390    3.1140   53.7430 N.am  223  GLY223     -0.1942
     93  CA        22.4590    2.5100   52.9770 C.3   223  GLY223      0.2014
     94  C         21.0420    3.0030   53.2120 C.2   223  GLY223      0.2639
     95  O         20.6850    3.4450   54.3060 O.2   223  GLY223     -0.2714
     96  N         20.2290    2.9270   52.1630 N.am  224  GLY224     -0.1939
     97  CA        18.8410    3.3370   52.2670 C.3   224  GLY224      0.2014
     98  C         18.5350    4.8180   52.1170 C.2   224  GLY224      0.2639
     99  O         17.3650    5.2000   52.1780 O.2   224  GLY224     -0.2714
    100  N         19.5560    5.6530   51.9280 N.am  225  ILE225     -0.1963
    101  CA        19.3250    7.0890   51.7740 C.3   225  ILE225      0.1727
    102  C         18.8430    7.3790   50.3530 C.2   225  ILE225      0.2616
    103  O         19.5580    7.1220   49.3820 O.2   225  ILE225     -0.2715
    104  CB        20.6120    7.9240   52.0040 C.3   225  ILE225      0.0290
    105  CG1       21.2400    7.5990   53.3670 C.3   225  ILE225      0.0022
    106  CG2       20.2730    9.4210   51.8970 C.3   225  ILE225      0.0023
    107  CD1       20.4370    8.0470   54.5500 C.3   225  ILE225      0.0001
    108  N         17.6390    7.9280   50.2350 N.am  226  ARG226     -0.1977
    109  CA        17.0680    8.2410   48.9290 C.3   226  ARG226      0.1597
    110  C         16.8730    9.7410   48.7250 C.2   226  ARG226      0.2287
    111  O         16.8130   10.2110   47.5870 O.2   226  ARG226     -0.2864
    112  CB        15.7160    7.5470   48.7770 C.3   226  ARG226      0.0334
    113  CG        15.7530    6.0500   49.0130 C.3   226  ARG226      0.0492
    114  CD        14.4530    5.5960   49.6490 C.3   226  ARG226      0.2205
    115  NE        14.2300    6.3110   50.9030 N.pl3 226  ARG226     -0.0865
    116  CZ        13.0410    6.4720   51.4760 C.cat 226  ARG226      0.5346
    117  NH1       11.9540    5.9640   50.9090 N.pl3 226  ARG226      0.1354
    118  NH2       12.9370    7.1590   52.6090 N.pl3 226  ARG226      0.1354
    119  N         26.6540    7.2060   54.3460 N.3   243  MET243     -0.1230
    120  CA        27.3730    6.7060   53.1820 C.3   243  MET243      0.1702
    121  C         26.3460    6.4790   52.0760 C.2   243  MET243      0.2592
    122  O         25.3280    5.8230   52.2910 O.2   243  MET243     -0.2718
    123  CB        28.1020    5.4040   53.5120 C.3   243  MET243      0.0401
    124  CG        28.7970    4.7880   52.3120 C.3   243  MET243      0.0596
    125  SD        29.8440    3.3880   52.7560 S.3   243  MET243     -0.1393
    126  CE        31.3580    4.2480   53.1350 C.3   243  MET243      0.0692
    127  N         26.6210    7.0250   50.8980 N.am  244  LEU244     -0.1966
    128  CA        25.7100    6.9210   49.7650 C.3   244  LEU244      0.1728
    129  C         26.2330    6.0800   48.6050 C.2   244  LEU244      0.2617
    130  O         27.4000    6.1810   48.2230 O.2   244  LEU244     -0.2715
    131  CB        25.3910    8.3190   49.2370 C.3   244  LEU244      0.0311
    132  CG        24.9840    9.3980   50.2470 C.3   244  LEU244      0.0022
    133  CD1       24.8450   10.7260   49.5270 C.3   244  LEU244      0.0001
    134  CD2       23.6880    9.0210   50.9310 C.3   244  LEU244      0.0001
    135  N         25.3470    5.2590   48.0470 N.am  245  GLY245     -0.1940
    136  CA        25.6900    4.4350   46.9030 C.3   245  GLY245      0.2014
    137  C         24.8400    4.9070   45.7320 C.2   245  GLY245      0.2639
    138  O         25.3280    5.5540   44.8050 O.2   245  GLY245     -0.2714
    139  N         23.5500    4.6000   45.8030 N.am  246  ASN246     -0.1958
    140  CA        22.5740    4.9600   44.7720 C.3   246  ASN246      0.1819
    141  C         22.6180    6.4390   44.3490 C.2   246  ASN246      0.2621
    142  O         22.6890    6.7540   43.1600 O.2   246  ASN246     -0.2715
    143  CB        21.1700    4.6000   45.2800 C.3   246  ASN246      0.1195
    144  CG        20.1010    4.6940   44.2010 C.2   246  ASN246      0.2630
    145  OD1       19.8130    5.7680   43.6840 O.2   246  ASN246     -0.2716
    146  ND2       19.5010    3.5590   43.8680 N.am  246  ASN246     -0.0877
    147  N         22.5790    7.3500   45.3170 N.am  247  LEU247     -0.1977
    148  CA        22.5860    8.7730   44.9940 C.3   247  LEU247      0.1596
    149  C         23.8550    9.2820   44.3130 C.2   247  LEU247      0.2287
    150  O         23.8220   10.3120   43.6430 O.2   247  LEU247     -0.2864
    151  CB        22.3000    9.6030   46.2510 C.3   247  LEU247      0.0297
    152  CG        20.8960    9.4300   46.8450 C.3   247  LEU247      0.0022
    153  CD1       20.7620   10.2940   48.0840 C.3   247  LEU247      0.0001
    154  CD2       19.8350    9.8010   45.8140 C.3   247  LEU247      0.0001
    155  N         24.5150    0.2840   38.2560 N.3   269  TYR269     -0.1241
    156  CA        24.6820    0.3330   39.7010 C.3   269  TYR269      0.1605
    157  C         24.3240   -1.0720   40.1580 C.2   269  TYR269      0.2264
    158  O         23.2470   -1.5790   39.8440 O.2   269  TYR269     -0.2867
    159  CB        23.7430    1.3670   40.3370 C.3   269  TYR269      0.0534
    160  CG        23.9040    1.4570   41.8410 C.ar  269  TYR269     -0.0201
    161  CD1       25.1670    1.6120   42.4110 C.ar  269  TYR269     -0.0009
    162  CD2       22.8070    1.3420   42.6910 C.ar  269  TYR269     -0.0009
    163  CE1       25.3360    1.6440   43.7870 C.ar  269  TYR269      0.0417
    164  CE2       22.9650    1.3690   44.0750 C.ar  269  TYR269      0.0417
    165  CZ        24.2320    1.5150   44.6140 C.ar  269  TYR269      0.1957
    166  OH        24.4120    1.4810   45.9750 O.3   269  TYR269     -0.2866
    167  N         25.0740   -4.3270   43.3910 N.3   271  GLY271     -0.1210
    168  CA        25.6050   -4.6860   44.6890 C.3   271  GLY271      0.1956
    169  C         26.9180   -5.4270   44.5230 C.2   271  GLY271      0.2612
    170  O         27.1070   -6.1480   43.5430 O.2   271  GLY271     -0.2717
    171  N         27.8290   -5.2380   45.4710 N.am  272  MET272     -0.1965
    172  CA        29.1220   -5.9020   45.4350 C.3   272  MET272      0.1736
    173  C         28.9130   -7.3910   45.6750 C.2   272  MET272      0.2617
    174  O         29.8000   -8.2080   45.4240 O.2   272  MET272     -0.2715
    175  CB        30.0440   -5.3110   46.5050 C.3   272  MET272      0.0427
    176  CG        30.4840   -3.8870   46.2070 C.3   272  MET272      0.0599
    177  SD        31.5340   -3.7900   44.7290 S.3   272  MET272     -0.1393
    178  CE        33.1660   -3.9920   45.4950 C.3   272  MET272      0.0692
    179  N         27.7250   -7.7290   46.1660 N.am  273  GLY273     -0.1955
    180  CA        27.3860   -9.1170   46.4150 C.3   273  GLY273      0.1869
    181  C         26.5110   -9.6550   45.2950 C.2   273  GLY273      0.2309
    182  O         25.6810  -10.5370   45.5140 O.2   273  GLY273     -0.2863
    183  N         23.3820  -11.6000   47.4130 N.3   290  GLU290     -0.1231
    184  CA        22.5770  -10.8240   48.3540 C.3   290  GLU290      0.1699
    185  C         22.4530   -9.3910   47.8390 C.2   290  GLU290      0.2592
    186  O         22.2020   -8.4480   48.6020 O.2   290  GLU290     -0.2718
    187  CB        23.2070  -10.8500   49.7500 C.3   290  GLU290      0.0402
    188  CG        22.8170  -12.0700   50.5660 C.3   290  GLU290      0.1161
    189  CD        23.5530  -12.1510   51.8940 C.2   290  GLU290      0.3649
    190  OE1       23.5800  -11.1410   52.6300 O.co2 290  GLU290     -0.2457
    191  OE2       24.0990  -13.2290   52.2050 O.co2 290  GLU290     -0.2457
    192  N         22.6350   -9.2500   46.5270 N.am  291  GLY291     -0.1957
    193  CA        22.5350   -7.9580   45.8720 C.3   291  GLY291      0.1869
    194  C         22.0760   -8.1310   44.4340 C.2   291  GLY291      0.2309
    195  O         22.2110   -9.2120   43.8630 O.2   291  GLY291     -0.2863
@<TRIPOS>BOND
     1   155   156    1
     2   156   157    1
     3   156   159    1
     4   158   157    2
     5   159   160    1
     6   160   161   ar
     7   160   162   ar
     8   161   163   ar
     9   162   164   ar
    10   142   141    2
    11   167   168    1
    12    69    67    1
    13   170   169    2
    14   150   149    2
    15    14    13    2
    16   145   144    2
    17   163   165   ar
    18   195   194    2
    19   146   144   am
    20    13    12    1
    21   164   165   ar
    22   144   143    1
    23   149   148    1
    24   141   140    1
    25   141   147   am
    26   194   193    1
    27   169   168    1
    28   169   171   am
    29   165   166    1
    30    67    68    1
    31    67    64    1
    32   177   178    1
    33   177   176    1
    34   140   143    1
    35   140   139    1
    36   138   137    2
    37   148   147    1
    38   148   151    1
    39    15    12    1
    40    15    16    1
    41   181   182    2
    42   181   180    1
    43    68    70    1
    44    12    11    1
    45   174   173    2
    46   172   171    1
    47   172   173    1
    48   172   175    1
    49    18    17    1
    50    64    63    1
    51    64    65    1
    52   173   179   am
    53   137   139   am
    54   137   136    1
    55   154   152    1
    56    62    61    1
    57   193   192    1
    58    60    59    2
    59    66    65    2
    60   179   180    1
    61   176   175    1
    62   151   152    1
    63    11     8   am
    64    63    59   am
    65    61    58    1
    66    59    58    1
    67   192   185   am
    68    65    71   am
    69    17    16    1
    70   152   153    1
    71   136   135    1
    72     4     3    2
    73    58    57    1
    74   183   184    1
    75     8     9    2
    76     8     7    1
    77   111   110    2
    78    71    72    1
    79   185   184    1
    80   185   186    2
    81   135   129   am
    82   130   129    2
    83     3     6   am
    84     3     2    1
    85   184   187    1
    86     7     6    1
    87     7    10    1
    88     5     2    1
    89    57    55   am
    90   129   128    1
    91     1     2    1
    92   110   109    1
    93    72    73    1
    94    72    75    1
    95   112   109    1
    96   112   113    1
    97    73    74    2
    98   109   108    1
    99   113   114    1
   100   131   128    1
   101   131   132    1
   102    56    55    2
   103   103   102    2
   104    55    54    1
   105   133   132    1
   106   114   115    1
   107   187   188    1
   108   128   127    1
   109    75    76    1
   110   108   102   am
   111   132   134    1
   112   102   101    1
   113    54    53    1
   114   188   189    1
   115   127   121   am
   116   115   116    2
   117   117   116    1
   118    26    24   ar
   119    77    78    1
   120   116   118    1
   121   101   100    1
   122   101   104    1
   123   189   191   ar
   124   189   190   ar
   125   106   104    1
   126   100    98   am
   127   104   105    1
   128   121   122    2
   129   121   120    1
   130    24    25   ar
   131    24    23    1
   132    98    99    2
   133    98    97    1
   134    96    97    1
   135    96    94   am
   136    78    81    1
   137    78    79    1
   138   124   125    1
   139   124   123    1
   140    82    81    1
   141   125   126    1
   142    93    94    1
   143    93    92    1
   144    23    20    1
   145    81    83    1
   146    79    80    2
   147    90    89   ar
   148   120   123    1
   149   120   119    1
   150    94    95    2
   151    52    51    2
   152   105   107    1
   153    22    21    2
   154    92    86   am
   155    51    50    1
   156    91    89   ar
   157    89    88    1
   158    21    20    1
   159    20    19    1
   160    31    28    1
   161    50    49    1
   162    86    87    2
   163    86    85    1
   164    48    47    1
   165    27    28    1
   166    28    29    1
   167    85    88    1
   168    85    84    1
   169    47    46    1
   170    39    37   am
   171    46    45    1
   172    38    37    2
   173    37    36    1
   174    29    30    2
   175    45    44    1
   176    36    33    1
   177    32    33    1
   178    44    41    1
   179    33    34    1
   180    41    42    1
   181    41    40    1
   182    34    35    2
   183    42    43    2
