@<TRIPOS>MOLECULE
tmp/2cukC00.pdb
 127 123 0 0 0
SMALL
GASTEIGER

@<TRIPOS>ATOM
      1  N          6.1480   19.0650  114.4380 N.3    74  VAL74      -0.1231
      2  CA         5.1170   18.2590  113.8000 C.3    74  VAL74       0.1692
      3  C          4.9780   16.9390  114.5580 C.2    74  VAL74       0.2592
      4  O          3.8750   16.4260  114.7240 O.2    74  VAL74      -0.2718
      5  CB         5.4380   17.9860  112.3060 C.3    74  VAL74       0.0266
      6  CG1        6.7880   17.3030  112.1660 C.3    74  VAL74       0.0020
      7  CG2        4.3310   17.1340  111.6880 C.3    74  VAL74       0.0020
      8  N          6.0990   16.3950  115.0260 N.am   75  GLY75      -0.1957
      9  CA         6.0530   15.1520  115.7790 C.3    75  GLY75       0.1869
     10  C          5.5890   15.4270  117.1980 C.2    75  GLY75       0.2309
     11  O          5.9280   16.4680  117.7560 O.2    75  GLY75      -0.2863
     12  N          5.4920   12.6220  119.6810 N.3    77  ASP77      -0.1239
     13  CA         5.7790   11.4250  120.4640 C.3    77  ASP77       0.1674
     14  C          6.3220   11.7410  121.8570 C.2    77  ASP77       0.2266
     15  O          6.4430   10.8480  122.6980 O.2    77  ASP77      -0.2867
     16  CB         6.7670   10.5240  119.7190 C.3    77  ASP77       0.1410
     17  CG         8.0480   11.2430  119.3470 C.2    77  ASP77       0.3668
     18  OD1        8.0830   11.9090  118.2930 O.co2  77  ASP77      -0.2456
     19  OD2        9.0210   11.1470  120.1190 O.co2  77  ASP77      -0.2456
     20  N          2.1210   21.1660  111.4520 N.3    95  PRO95      -0.2102
     21  CA         2.3570   20.4340  110.2070 C.3    95  PRO95       0.1504
     22  C          2.3200   21.3990  109.0210 C.2    95  PRO95       0.2576
     23  O          1.9010   22.5500  109.1600 O.2    95  PRO95      -0.2718
     24  CB         1.1970   19.4520  110.1750 C.3    95  PRO95       0.0282
     25  CG         0.0730   20.2960  110.7240 C.3    95  PRO95       0.0208
     26  CD         0.7300   20.9840  111.9140 C.3    95  PRO95       0.0893
     27  N          2.7670   20.9270  107.8630 N.am   96  GLY96      -0.1957
     28  CA         2.7420   21.7450  106.6620 C.3    96  GLY96       0.1869
     29  C          3.7900   22.8330  106.5400 C.2    96  GLY96       0.2309
     30  O          4.5190   22.8920  105.5460 O.2    96  GLY96      -0.2863
     31  N          6.5960   23.1810  107.9190 N.3    98  LEU98      -0.1231
     32  CA         7.9810   22.7040  107.8980 C.3    98  LEU98       0.1693
     33  C          8.2640   21.6300  106.8420 C.2    98  LEU98       0.2592
     34  O          9.3830   21.1160  106.7460 O.2    98  LEU98      -0.2718
     35  CB         8.3610   22.1900  109.2930 C.3    98  LEU98       0.0284
     36  CG         7.2870   21.3890  110.0460 C.3    98  LEU98       0.0019
     37  CD1        7.0030   20.0840  109.3130 C.3    98  LEU98       0.0001
     38  CD2        7.7520   21.1050  111.4680 C.3    98  LEU98       0.0001
     39  N          7.2520   21.3240  106.0350 N.am   99  THR99      -0.1953
     40  CA         7.3530   20.3070  104.9880 C.3    99  THR99       0.1897
     41  C          8.4860   20.5190  103.9890 C.2    99  THR99       0.2313
     42  O          9.3220   19.6370  103.7910 O.2    99  THR99      -0.2863
     43  CB         6.0260   20.2030  104.1910 C.3    99  THR99       0.1794
     44  OG1        4.9750   19.7890  105.0690 O.3    99  THR99      -0.2208
     45  CG2        6.1560   19.1940  103.0480 C.3    99  THR99       0.0378
     46  N          3.5890   10.9010  103.8370 N.3   153  GLY153     -0.1210
     47  CA         2.7750   12.0530  104.1650 C.3   153  GLY153      0.1956
     48  C          3.2560   13.2310  103.3380 C.2   153  GLY153      0.2612
     49  O          3.7980   13.0500  102.2500 O.2   153  GLY153     -0.2717
     50  N          3.0750   14.4410  103.8560 N.am  154  ARG154     -0.1965
     51  CA         3.4880   15.6440  103.1470 C.3   154  ARG154      0.1729
     52  C          4.9820   15.7040  102.8560 C.2   154  ARG154      0.2616
     53  O          5.3950   16.0650  101.7510 O.2   154  ARG154     -0.2715
     54  CB         3.0760   16.8870  103.9440 C.3   154  ARG154      0.0348
     55  CG         1.5770   17.1740  103.9280 C.3   154  ARG154      0.0492
     56  CD         1.2370   18.3790  104.8030 C.3   154  ARG154      0.2205
     57  NE         1.2450   18.0400  106.2240 N.pl3 154  ARG154     -0.0865
     58  CZ         0.2330   17.4560  106.8600 C.cat 154  ARG154      0.5346
     59  NH1       -0.8790   17.1510  106.2060 N.pl3 154  ARG154      0.1354
     60  NH2        0.3380   17.1620  108.1480 N.pl3 154  ARG154      0.1354
     61  N          5.7950   15.3510  103.8440 N.am  155  ILE155     -0.1963
     62  CA         7.2410   15.3980  103.6790 C.3   155  ILE155      0.1727
     63  C          7.7370   14.3580  102.6790 C.2   155  ILE155      0.2616
     64  O          8.5440   14.6690  101.7960 O.2   155  ILE155     -0.2715
     65  CB         7.9480   15.2230  105.0490 C.3   155  ILE155      0.0290
     66  CG1        7.5620   16.3900  105.9660 C.3   155  ILE155      0.0022
     67  CG2        9.4660   15.1870  104.8570 C.3   155  ILE155      0.0023
     68  CD1        7.9740   16.2150  107.4240 C.3   155  ILE155      0.0001
     69  N          7.2530   13.1270  102.8160 N.am  156  GLY156     -0.1955
     70  CA         7.6490   12.0780  101.8990 C.3   156  GLY156      0.1869
     71  C          7.3110   12.4560  100.4680 C.2   156  GLY156      0.2309
     72  O          8.0970   12.2210   99.5560 O.2   156  GLY156     -0.2863
     73  N         10.0440    8.4980  106.8300 N.3   200  HIS200     -0.1226
     74  CA         9.1740    9.6620  106.9710 C.3   200  HIS200      0.1752
     75  C          7.8970    9.2480  107.6810 C.2   200  HIS200      0.2597
     76  O          6.7890    9.5820  107.2520 O.2   200  HIS200     -0.2718
     77  CB         8.8410   10.2290  105.5930 C.3   200  HIS200      0.0759
     78  CG        10.0410   10.7050  104.8400 C.ar  200  HIS200      0.0818
     79  ND1       10.7380   11.8360  105.1960 N.ar  200  HIS200     -0.2268
     80  CD2       10.7020   10.1710  103.7870 C.ar  200  HIS200      0.1154
     81  CE1       11.7790   11.9800  104.3960 C.ar  200  HIS200      0.1986
     82  NE2       11.7790   10.9820  103.5310 N.ar  200  HIS200     -0.2212
     83  N          8.0610    8.5080  108.7690 N.am  201  THR201     -0.1939
     84  CA         6.9260    8.0320  109.5370 C.3   201  THR201      0.2013
     85  C          7.0790    8.4260  111.0050 C.2   201  THR201      0.2484
     86  O          8.1930    8.5040  111.5240 O.2   201  THR201     -0.2729
     87  CB         6.8070    6.4980  109.4200 C.3   201  THR201      0.1807
     88  OG1        5.5790    6.0650  110.0150 O.3   201  THR201     -0.2208
     89  CG2        7.9830    5.8180  110.1220 C.3   201  THR201      0.0379
     90  N          5.9580    8.6990  111.6870 N.am  202  PRO202     -0.2715
     91  CA         6.0040    9.0820  113.1020 C.3   202  PRO202      0.1536
     92  C          6.4640    7.9340  113.9940 C.2   202  PRO202      0.2598
     93  O          6.3330    6.7610  113.6370 O.2   202  PRO202     -0.2715
     94  CB         4.5650    9.5090  113.3940 C.3   202  PRO202      0.0310
     95  CG         3.7660    8.6760  112.4500 C.3   202  PRO202      0.0237
     96  CD         4.5770    8.7360  111.1750 C.3   202  PRO202      0.0939
     97  N          7.0170    8.2770  115.1510 N.am  203  LEU203     -0.1978
     98  CA         7.4870    7.2690  116.0930 C.3   203  LEU203      0.1596
     99  C          6.3450    6.8300  116.9980 C.2   203  LEU203      0.2287
    100  O          5.7120    7.6540  117.6600 O.2   203  LEU203     -0.2864
    101  CB         8.6320    7.8260  116.9390 C.3   203  LEU203      0.0297
    102  CG         9.1320    6.9480  118.0910 C.3   203  LEU203      0.0022
    103  CD1        9.6040    5.6010  117.5590 C.3   203  LEU203      0.0001
    104  CD2       10.2610    7.6700  118.8140 C.3   203  LEU203      0.0001
    105  N         15.4600   11.4470  108.6890 N.3   228  THR228     -0.1203
    106  CA        15.2180   12.8120  109.1200 C.3   228  THR228      0.1994
    107  C         13.9270   12.8390  109.9410 C.2   228  THR228      0.2618
    108  O         13.4170   13.9090  110.2760 O.2   228  THR228     -0.2717
    109  CB        15.0750   13.7520  107.9040 C.3   228  THR228      0.1784
    110  OG1       13.9300   13.3690  107.1270 O.3   228  THR228     -0.2211
    111  CG2       16.3200   13.6720  107.0240 C.3   228  THR228      0.0376
    112  N         13.4050   11.6540  110.2620 N.am  229  ALA229     -0.1965
    113  CA        12.1650   11.5320  111.0360 C.3   229  ALA229      0.1728
    114  C         12.4280   11.4870  112.5380 C.2   229  ALA229      0.2616
    115  O         12.4480   12.5220  113.2040 O.2   229  ALA229     -0.2715
    116  CB        11.3930   10.2810  110.6000 C.3   229  ALA229      0.0334
    117  N         12.6040   10.2850  113.0750 N.am  230  ARG230     -0.1977
    118  CA        12.8950   10.1240  114.4970 C.3   230  ARG230      0.1597
    119  C         14.0090    9.0920  114.6620 C.2   230  ARG230      0.2287
    120  O         13.9920    8.0420  114.0170 O.2   230  ARG230     -0.2864
    121  CB        11.6380    9.6860  115.2610 C.3   230  ARG230      0.0334
    122  CG        10.6600   10.8270  115.5580 C.3   230  ARG230      0.0492
    123  CD        11.1840   11.7320  116.6710 C.3   230  ARG230      0.2205
    124  NE        10.2880   12.8520  116.9720 N.pl3 230  ARG230     -0.0865
    125  CZ        10.2070   13.9720  116.2540 C.cat 230  ARG230      0.5346
    126  NH1       10.9680   14.1380  115.1800 N.pl3 230  ARG230      0.1354
    127  NH2        9.3690   14.9350  116.6190 N.pl3 230  ARG230      0.1354
@<TRIPOS>BOND
     1    72    71    2
     2    71    70    1
     3    53    52    2
     4    64    63    2
     5    70    69    1
     6    49    48    2
     7    63    69   am
     8    63    62    1
     9    52    51    1
    10    52    61   am
    11    45    43    1
    12    51    50    1
    13    51    54    1
    14    48    50   am
    15    48    47    1
    16    82    80   ar
    17    82    81   ar
    18    62    61    1
    19    62    65    1
    20    80    78   ar
    21    42    41    2
    22    46    47    1
    23    55    54    1
    24    55    56    1
    25    41    40    1
    26    43    40    1
    27    43    44    1
    28    81    79   ar
    29    56    57    1
    30    78    79   ar
    31    78    77    1
    32    67    65    1
    33    40    39    1
    34    65    66    1
    35    30    29    2
    36    77    74    1
    37    66    68    1
    38    39    33   am
    39    59    58    1
    40    57    58    2
    41    29    28    1
    42    28    27    1
    43    34    33    2
    44    73    74    1
    45    33    32    1
    46    58    60    1
    47    74    75    1
    48   111   109    1
    49   110   109    1
    50    76    75    2
    51    75    83   am
    52    27    22   am
    53    32    31    1
    54    32    35    1
    55   109   106    1
    56   105   106    1
    57    83    84    1
    58    22    23    2
    59    22    21    1
    60   106   107    1
    61    35    36    1
    62    37    36    1
    63    87    84    1
    64    87    88    1
    65    87    89    1
    66    84    85    1
    67   107   112   am
    68   107   108    2
    69    36    38    1
    70    24    21    1
    71    24    25    1
    72    21    20    1
    73   112   113    1
    74   116   113    1
    75    25    26    1
    76    85    86    2
    77    85    90   am
    78   113   114    1
    79    96    90    1
    80    96    95    1
    81    20    26    1
    82    90    91    1
    83     7     5    1
    84     6     5    1
    85     5     2    1
    86    95    94    1
    87   114   117   am
    88   114   115    2
    89   117   118    1
    90    91    94    1
    91    91    92    1
    92    93    92    2
    93     2     1    1
    94     2     3    1
    95    92    97   am
    96   120   119    2
    97   118   119    1
    98   118   121    1
    99     3     4    2
   100     3     8   am
   101     8     9    1
   102    97    98    1
   103   126   125    1
   104   121   122    1
   105   122   123    1
   106     9    10    1
   107    98   101    1
   108    98    99    1
   109   125   127    1
   110   125   124    2
   111   123   124    1
   112   101   102    1
   113    99   100    2
   114    10    11    2
   115   103   102    1
   116   102   104    1
   117    18    17   ar
   118    17    16    1
   119    17    19   ar
   120    12    13    1
   121    16    13    1
   122    13    14    1
   123    14    15    2
