@<TRIPOS>MOLECULE
tmp/2cunA00.pdb
 122 113 0 0 0
SMALL
GASTEIGER

@<TRIPOS>ATOM
      1  N         26.1260   24.5130   40.1950 N.3    19  ASP19      -0.1239
      2  CA        26.7810   24.1830   41.4380 C.3    19  ASP19       0.1674
      3  C         27.8950   23.1980   41.1260 C.2    19  ASP19       0.2266
      4  O         27.6460   22.0010   40.9630 O.2    19  ASP19      -0.2867
      5  CB        25.8090   23.5450   42.4280 C.3    19  ASP19       0.1410
      6  CG        26.3910   23.4530   43.8230 C.2    19  ASP19       0.3668
      7  OD1       27.5900   23.1110   43.9540 O.co2  19  ASP19      -0.2456
      8  OD2       25.6490   23.7240   44.7870 O.co2  19  ASP19      -0.2456
      9  N         30.4840   23.2330   43.1440 N.3    21  ASN21      -0.1240
     10  CA        31.1330   23.2650   44.4560 C.3    21  ASN21       0.1653
     11  C         31.3980   21.8000   44.7500 C.2    21  ASN21       0.2266
     12  O         30.5000   21.0650   45.1540 O.2    21  ASN21      -0.2867
     13  CB        30.1840   23.8610   45.5040 C.3    21  ASN21       0.1155
     14  CG        30.6610   23.6350   46.9330 C.2    21  ASN21       0.2627
     15  OD1       31.8400   23.7750   47.2330 O.2    21  ASN21      -0.2716
     16  ND2       29.7300   23.3030   47.8230 N.am   21  ASN21      -0.0877
     17  N         29.2810   16.6280   39.8900 N.3    34  ARG34      -0.1245
     18  CA        28.5030   17.8320   39.6340 C.3    34  ARG34       0.1563
     19  C         28.7650   18.4300   38.2560 C.2    34  ARG34       0.2260
     20  O         27.8770   19.0520   37.6660 O.2    34  ARG34      -0.2867
     21  CB        28.7160   18.8410   40.7700 C.3    34  ARG34       0.0307
     22  CG        27.9480   18.4050   42.0150 C.3    34  ARG34       0.0489
     23  CD        27.9420   19.4080   43.1590 C.3    34  ARG34       0.2205
     24  NE        27.0920   18.9230   44.2440 N.pl3  34  ARG34      -0.0865
     25  CZ        26.9320   19.5330   45.4120 C.cat  34  ARG34       0.5346
     26  NH1       27.5670   20.6720   45.6730 N.pl3  34  ARG34       0.1354
     27  NH2       26.1310   19.0010   46.3200 N.pl3  34  ARG34       0.1354
     28  N         33.4160   28.1430   51.0880 N.3    60  LYS60      -0.1245
     29  CA        32.9530   29.3910   51.6940 C.3    60  LYS60       0.1561
     30  C         34.2040   30.0130   52.2970 C.2    60  LYS60       0.2260
     31  O         35.1320   29.3000   52.6660 O.2    60  LYS60      -0.2867
     32  CB        31.9070   29.1210   52.7820 C.3    60  LYS60       0.0271
     33  CG        32.4040   28.2820   53.9420 C.3    60  LYS60       0.0035
     34  CD        31.2450   27.7590   54.7930 C.3    60  LYS60       0.0206
     35  CE        30.4990   28.8730   55.5210 C.3    60  LYS60       0.1093
     36  NZ        31.2770   29.3970   56.6840 N.3    60  LYS60      -0.1314
     37  N         38.1190   23.9860   51.6460 N.3    65  ASP65      -0.1239
     38  CA        37.8360   23.7860   50.2250 C.3    65  ASP65       0.1674
     39  C         37.4070   25.0630   49.4850 C.2    65  ASP65       0.2266
     40  O         36.6730   25.0050   48.4950 O.2    65  ASP65      -0.2867
     41  CB        36.7850   22.6820   50.0330 C.3    65  ASP65       0.1410
     42  CG        35.5050   22.9390   50.8030 C.2    65  ASP65       0.3668
     43  OD1       35.3910   23.9760   51.4970 O.co2  65  ASP65      -0.2456
     44  OD2       34.5990   22.0860   50.7110 O.co2  65  ASP65      -0.2456
     45  N         31.7820   33.0200   45.4890 N.3   114  ARG114     -0.1245
     46  CA        31.8420   33.3670   46.8980 C.3   114  ARG114      0.1563
     47  C         33.0870   34.1470   47.3100 C.2   114  ARG114      0.2260
     48  O         33.4280   34.2280   48.4880 O.2   114  ARG114     -0.2867
     49  CB        31.6280   32.1280   47.7710 C.3   114  ARG114      0.0307
     50  CG        30.1510   31.6910   47.7860 C.3   114  ARG114      0.0489
     51  CD        29.8960   30.5220   48.7190 C.3   114  ARG114      0.2205
     52  NE        28.4940   30.1030   48.7030 N.pl3 114  ARG114     -0.0865
     53  CZ        28.0260   29.0310   49.3420 C.cat 114  ARG114      0.5346
     54  NH1       28.8450   28.2690   50.0490 N.pl3 114  ARG114      0.1354
     55  NH2       26.7390   28.7170   49.2760 N.pl3 114  ARG114      0.1354
     56  N         21.6300   21.9480   43.7320 N.3   150  ALA150     -0.1245
     57  CA        22.3020   21.7250   45.0190 C.3   150  ALA150      0.1562
     58  C         22.3990   22.9800   45.8990 C.2   150  ALA150      0.2260
     59  O         22.6770   22.8800   47.0980 O.2   150  ALA150     -0.2867
     60  CB        23.6900   21.1430   44.7870 C.3   150  ALA150      0.0290
     61  N         18.4040   25.8050   47.9540 N.3   153  HIS153     -0.1226
     62  CA        17.8830   26.2010   49.2540 C.3   153  HIS153      0.1752
     63  C         18.4990   27.5160   49.7410 C.2   153  HIS153      0.2595
     64  O         18.1170   28.0210   50.7870 O.2   153  HIS153     -0.2718
     65  CB        18.1190   25.0910   50.2960 C.3   153  HIS153      0.0759
     66  CG        19.5550   24.7020   50.4620 C.ar  153  HIS153      0.0818
     67  ND1       20.3860   24.4480   49.3920 N.ar  153  HIS153     -0.2268
     68  CD2       20.2950   24.4700   51.5750 C.ar  153  HIS153      0.1154
     69  CE1       21.5730   24.0750   49.8370 C.ar  153  HIS153      0.1986
     70  NE2       21.5440   24.0790   51.1580 N.ar  153  HIS153     -0.2212
     71  N         19.4440   28.0670   48.9790 N.am  154  ARG154     -0.1980
     72  CA        20.0890   29.3330   49.3470 C.3   154  ARG154      0.1597
     73  C         19.4860   30.5170   48.5970 C.2   154  ARG154      0.2287
     74  O         19.0830   30.3920   47.4360 O.2   154  ARG154     -0.2864
     75  CB        21.5870   29.2930   49.0400 C.3   154  ARG154      0.0334
     76  CG        22.3690   28.2760   49.8530 C.3   154  ARG154      0.0492
     77  CD        22.2580   28.5320   51.3460 C.3   154  ARG154      0.2205
     78  NE        22.9930   27.5100   52.0870 N.pl3 154  ARG154     -0.0865
     79  CZ        22.5240   26.8670   53.1480 C.cat 154  ARG154      0.5346
     80  NH1       21.3070   27.1380   53.6030 N.pl3 154  ARG154      0.1354
     81  NH2       23.2690   25.9470   53.7460 N.pl3 154  ARG154      0.1354
     82  N         23.8220   15.5250   59.0320 N.3   200  LYS200     -0.1245
     83  CA        22.9300   16.6880   59.1140 C.3   200  LYS200      0.1561
     84  C         21.7220   16.3360   59.9850 C.2   200  LYS200      0.2260
     85  O         20.5800   16.3260   59.5150 O.2   200  LYS200     -0.2867
     86  CB        22.4440   17.0980   57.7180 C.3   200  LYS200      0.0271
     87  CG        23.5260   17.6330   56.7830 C.3   200  LYS200      0.0035
     88  CD        22.9110   18.1040   55.4660 C.3   200  LYS200      0.0206
     89  CE        23.9420   18.7720   54.5650 C.3   200  LYS200      0.1093
     90  NZ        25.0710   17.8660   54.2200 N.3   200  LYS200     -0.1314
     91  N         22.5040   13.4860   48.8700 N.3   358  GLY358     -0.1210
     92  CA        23.4890   13.5610   49.9330 C.3   358  GLY358      0.1956
     93  C         24.6120   14.5240   49.5900 C.2   358  GLY358      0.2612
     94  O         25.3740   14.9330   50.4650 O.2   358  GLY358     -0.2717
     95  N         24.7190   14.8910   48.3150 N.am  359  GLY359     -0.1942
     96  CA        25.7740   15.8070   47.9080 C.3   359  GLY359      0.2014
     97  C         27.1590   15.2420   48.1830 C.2   359  GLY359      0.2639
     98  O         27.4250   14.0770   47.8900 O.2   359  GLY359     -0.2714
     99  N         28.0410   16.0620   48.7510 N.am  360  HIS360     -0.1959
    100  CA        29.4050   15.6390   49.0590 C.3   360  HIS360      0.1787
    101  C         29.4890   14.3970   49.9600 C.2   360  HIS360      0.2620
    102  O         30.4130   13.5900   49.8320 O.2   360  HIS360     -0.2715
    103  CB        30.1730   16.7900   49.7230 C.3   360  HIS360      0.0785
    104  CG        30.3640   17.9850   48.8380 C.ar  360  HIS360      0.0821
    105  ND1       31.2650   18.9880   49.1280 N.ar  360  HIS360     -0.2267
    106  CD2       29.7770   18.3330   47.6680 C.ar  360  HIS360      0.1154
    107  CE1       31.2280   19.8980   48.1720 C.ar  360  HIS360      0.1986
    108  NE2       30.3330   19.5240   47.2740 N.ar  360  HIS360     -0.2212
    109  N         28.5220   14.2450   50.8610 N.am  361  SER361     -0.1950
    110  CA        28.5100   13.1130   51.7860 C.3   361  SER361      0.1924
    111  C         28.4300   11.7360   51.1190 C.2   361  SER361      0.2314
    112  O         28.8360   10.7390   51.7160 O.2   361  SER361     -0.2863
    113  CB        27.3580   13.2560   52.7820 C.3   361  SER361      0.2116
    114  OG        26.1180   12.9650   52.1660 O.3   361  SER361     -0.2180
    115  N         22.1350   17.7210   48.5620 N.3   380  GLY380     -0.1210
    116  CA        22.3090   17.1810   49.8970 C.3   380  GLY380      0.1956
    117  C         21.4290   18.0600   50.7680 C.2   380  GLY380      0.2612
    118  O         20.2650   17.7280   51.0180 O.2   380  GLY380     -0.2717
    119  N         21.9730   19.1990   51.2020 N.am  381  GLY381     -0.1956
    120  CA        21.2060   20.1270   52.0160 C.3   381  GLY381      0.1869
    121  C         19.9590   20.5830   51.2780 C.2   381  GLY381      0.2309
    122  O         18.8900   20.7500   51.8690 O.2   381  GLY381     -0.2863
@<TRIPOS>BOND
     1    20    19    2
     2    19    18    1
     3    18    17    1
     4    18    21    1
     5     1     2    1
     6    21    22    1
     7     4     3    2
     8     3     2    1
     9     2     5    1
    10    22    23    1
    11     5     6    1
    12     9    10    1
    13    23    24    1
    14    56    57    1
    15     6     7   ar
    16     6     8   ar
    17    24    25    2
    18    10    11    1
    19    10    13    1
    20    11    12    2
    21    60    57    1
    22    57    58    1
    23    25    26    1
    24    25    27    1
    25    45    46    1
    26    13    14    1
    27    58    59    2
    28    46    47    1
    29    46    49    1
    30    14    15    2
    31    14    16   am
    32   108   106   ar
    33   108   107   ar
    34    47    48    2
    35    74    73    2
    36   106   104   ar
    37    49    50    1
    38    50    51    1
    39    98    97    2
    40    96    97    1
    41    96    95    1
    42    61    62    1
    43   107   105   ar
    44    97    99   am
    45    95    93   am
    46    40    39    2
    47   115   116    1
    48    73    72    1
    49    52    51    1
    50    52    53    2
    51    99   100    1
    52   104   105   ar
    53   104   103    1
    54    91    92    1
    55    71    72    1
    56    71    63   am
    57    75    72    1
    58    75    76    1
    59   100   103    1
    60   100   101    1
    61    62    63    1
    62    62    65    1
    63    55    53    1
    64    53    54    1
    65    67    69   ar
    66    67    66   ar
    67    39    38    1
    68    93    92    1
    69    93    94    2
    70    63    64    2
    71   102   101    2
    72    69    70   ar
    73    76    77    1
    74   116   117    1
    75   101   109   am
    76    41    38    1
    77    41    42    1
    78    38    37    1
    79    65    66    1
    80    66    68   ar
    81    44    42   ar
    82   117   118    2
    83   117   119   am
    84    42    43   ar
    85   109   110    1
    86    28    29    1
    87   111   112    2
    88   111   110    1
    89    70    68   ar
    90   119   120    1
    91   121   122    2
    92   121   120    1
    93    77    78    1
    94    29    30    1
    95    29    32    1
    96   110   113    1
    97    78    79    2
    98   114   113    1
    99    30    31    2
   100    32    33    1
   101    79    80    1
   102    79    81    1
   103    33    34    1
   104    90    89    1
   105    89    88    1
   106    34    35    1
   107    88    87    1
   108    35    36    1
   109    87    86    1
   110    86    83    1
   111    82    83    1
   112    83    84    1
   113    85    84    2
