@<TRIPOS>MOLECULE
tmp/2cunA01.pdb
 96 90 0 0 0
SMALL
GASTEIGER

@<TRIPOS>ATOM
      1  N         32.6380   21.3840   44.5540 N.3    22  SER22      -0.1203
      2  CA        32.9840   19.9860   44.7140 C.3    22  SER22       0.2005
      3  C         33.8280   19.6160   45.9140 C.2    22  SER22       0.2460
      4  O         34.5900   20.4350   46.4280 O.2    22  SER22      -0.2732
      5  CB        33.6860   19.5100   43.4430 C.3    22  SER22       0.2103
      6  OG        32.9140   19.8430   42.3040 O.3    22  SER22      -0.2182
      7  N         33.7030   18.3550   46.3680 N.am   23  PRO23      -0.2728
      8  CA        34.4630   17.8560   47.5130 C.3    23  PRO23       0.1401
      9  C         35.9220   17.9290   47.0990 C.2    23  PRO23       0.2269
     10  O         36.2540   17.6510   45.9440 O.2    23  PRO23      -0.2865
     11  CB        33.9910   16.4080   47.6490 C.3    23  PRO23       0.0296
     12  CG        32.6420   16.4000   46.9830 C.3    23  PRO23       0.0237
     13  CD        32.8520   17.2930   45.8000 C.3    23  PRO23       0.0939
     14  N         35.9010   14.6410   42.9420 N.3    31  SER31      -0.1217
     15  CA        34.6940   14.0890   42.3360 C.3    31  SER31       0.1889
     16  C         34.1540   15.0810   41.3260 C.2    31  SER31       0.2288
     17  O         33.8790   16.2300   41.6750 O.2    31  SER31      -0.2866
     18  CB        33.6250   13.8130   43.3940 C.3    31  SER31       0.2089
     19  OG        32.4190   13.3880   42.7770 O.3    31  SER31      -0.2183
     20  N         31.3270   14.6300   39.6680 N.3    33  ALA33      -0.1231
     21  CA        29.9140   14.3220   39.4800 C.3    33  ALA33       0.1694
     22  C         29.0830   15.5510   39.1410 C.2    33  ALA33       0.2591
     23  O         28.2680   15.5290   38.2130 O.2    33  ALA33      -0.2718
     24  CB        29.3480   13.6390   40.7310 C.3    33  ALA33       0.0304
     25  N         29.2810   16.6280   39.8900 N.am   34  ARG34      -0.1980
     26  CA        28.5030   17.8320   39.6340 C.3    34  ARG34       0.1597
     27  C         28.7650   18.4300   38.2560 C.2    34  ARG34       0.2287
     28  O         27.8770   19.0520   37.6660 O.2    34  ARG34      -0.2864
     29  CB        28.7160   18.8410   40.7700 C.3    34  ARG34       0.0334
     30  CG        27.9480   18.4050   42.0150 C.3    34  ARG34       0.0492
     31  CD        27.9420   19.4080   43.1590 C.3    34  ARG34       0.2205
     32  NE        27.0920   18.9230   44.2440 N.pl3  34  ARG34      -0.0865
     33  CZ        26.9320   19.5330   45.4120 C.cat  34  ARG34       0.5346
     34  NH1       27.5670   20.6720   45.6730 N.pl3  34  ARG34       0.1354
     35  NH2       26.1310   19.0010   46.3200 N.pl3  34  ARG34       0.1354
     36  N         26.8580   16.2480   35.7490 N.3    37  ALA37      -0.1245
     37  CA        25.4310   16.5080   35.8660 C.3    37  ALA37       0.1562
     38  C         24.9680   17.7170   35.0540 C.2    37  ALA37       0.2260
     39  O         23.7900   17.8310   34.7190 O.2    37  ALA37      -0.2867
     40  CB        25.0570   16.6910   37.3310 C.3    37  ALA37       0.0290
     41  N         24.7190   14.8910   48.3150 N.3   359  GLY359     -0.1210
     42  CA        25.7740   15.8070   47.9080 C.3   359  GLY359      0.1956
     43  C         27.1590   15.2420   48.1830 C.2   359  GLY359      0.2611
     44  O         27.4250   14.0770   47.8900 O.2   359  GLY359     -0.2717
     45  N         28.0410   16.0620   48.7510 N.am  360  HIS360     -0.1975
     46  CA        29.4050   15.6390   49.0590 C.3   360  HIS360      0.1656
     47  C         29.4890   14.3970   49.9600 C.2   360  HIS360      0.2291
     48  O         30.4130   13.5900   49.8320 O.2   360  HIS360     -0.2864
     49  CB        30.1730   16.7900   49.7230 C.3   360  HIS360      0.0771
     50  CG        30.3640   17.9850   48.8380 C.ar  360  HIS360      0.0820
     51  ND1       31.2650   18.9880   49.1280 N.ar  360  HIS360     -0.2267
     52  CD2       29.7770   18.3330   47.6680 C.ar  360  HIS360      0.1154
     53  CE1       31.2280   19.8980   48.1720 C.ar  360  HIS360      0.1986
     54  NE2       30.3330   19.5240   47.2740 N.ar  360  HIS360     -0.2212
     55  N         27.9120   11.6640   49.8970 N.3   362  ILE362     -0.1231
     56  CA        27.8190   10.3700   49.2150 C.3   362  ILE362      0.1692
     57  C         28.6800   10.2980   47.9560 C.2   362  ILE362      0.2591
     58  O         28.4740    9.4360   47.1030 O.2   362  ILE362     -0.2718
     59  CB        26.3620   10.0250   48.8200 C.3   362  ILE362      0.0266
     60  CG1       25.8070   11.0870   47.8630 C.3   362  ILE362      0.0019
     61  CG2       25.5010    9.9030   50.0700 C.3   362  ILE362      0.0020
     62  CD1       24.5400   10.6510   47.1600 C.3   362  ILE362      0.0001
     63  N         29.6520   11.1980   47.8550 N.am  363  ALA363     -0.1980
     64  CA        30.5500   11.2490   46.7040 C.3   363  ALA363      0.1597
     65  C         31.2770    9.9320   46.4520 C.2   363  ALA363      0.2287
     66  O         31.5990    9.6030   45.3110 O.2   363  ALA363     -0.2864
     67  CB        31.5600   12.3620   46.8940 C.3   363  ALA363      0.0319
     68  N         30.1910    7.1930   46.2790 N.3   365  ILE365     -0.1245
     69  CA        29.3770    6.2340   45.5470 C.3   365  ILE365      0.1561
     70  C         29.9830    5.9450   44.1790 C.2   365  ILE365      0.2260
     71  O         29.7430    4.8850   43.5950 O.2   365  ILE365     -0.2867
     72  CB        27.9270    6.7290   45.3720 C.3   365  ILE365      0.0252
     73  CG1       27.0410    5.5600   44.9310 C.3   365  ILE365      0.0019
     74  CG2       27.8710    7.8610   44.3420 C.3   365  ILE365      0.0019
     75  CD1       25.5720    5.8930   44.8630 C.3   365  ILE365      0.0001
     76  N         19.4980    9.9070   41.0880 N.3   376  ILE376     -0.1231
     77  CA        20.5070   10.2610   42.0620 C.3   376  ILE376      0.1692
     78  C         20.6400   11.7780   41.9520 C.2   376  ILE376      0.2593
     79  O         21.1270   12.3050   40.9590 O.2   376  ILE376     -0.2718
     80  CB        21.8540    9.5680   41.7650 C.3   376  ILE376      0.0266
     81  CG1       21.7190    8.0580   42.0050 C.3   376  ILE376      0.0019
     82  CG2       22.9540   10.1520   42.6520 C.3   376  ILE376      0.0020
     83  CD1       22.9540    7.2670   41.6340 C.3   376  ILE376      0.0001
     84  N         20.1570   12.4670   42.9740 N.am  377  SER377     -0.1938
     85  CA        20.2010   13.9190   43.0350 C.3   377  SER377      0.2055
     86  C         21.5990   14.4470   43.3470 C.2   377  SER377      0.2643
     87  O         22.4010   13.7700   43.9860 O.2   377  SER377     -0.2714
     88  CB        19.2230   14.4020   44.1090 C.3   377  SER377      0.2130
     89  OG        19.3590   15.7910   44.3450 O.3   377  SER377     -0.2179
     90  N         21.8930   15.6550   42.8760 N.am  378  THR378     -0.1950
     91  CA        23.1840   16.2860   43.1540 C.3   378  THR378      0.1897
     92  C         23.0440   17.0080   44.4920 C.2   378  THR378      0.2313
     93  O         24.0140   17.5200   45.0520 O.2   378  THR378     -0.2863
     94  CB        23.5520   17.3570   42.0910 C.3   378  THR378      0.1794
     95  OG1       22.4610   18.2790   41.9430 O.3   378  THR378     -0.2208
     96  CG2       23.8840   16.7050   40.7560 C.3   378  THR378      0.0378
@<TRIPOS>BOND
     1    39    38    2
     2    38    37    1
     3    36    37    1
     4    37    40    1
     5    28    27    2
     6    23    22    2
     7    27    26    1
     8    22    21    1
     9    22    25   am
    10    21    20    1
    11    21    24    1
    12    26    25    1
    13    26    29    1
    14    96    94    1
    15    29    30    1
    16    79    78    2
    17    76    77    1
    18    16    17    2
    19    16    15    1
    20    83    81    1
    21    80    81    1
    22    80    77    1
    23    80    82    1
    24    95    94    1
    25    78    77    1
    26    78    84   am
    27    30    31    1
    28    94    91    1
    29     6     5    1
    30    15    14    1
    31    15    18    1
    32    19    18    1
    33    90    91    1
    34    90    86   am
    35    84    85    1
    36    85    86    1
    37    85    88    1
    38    91    92    1
    39    31    32    1
    40    86    87    2
    41     5     2    1
    42    71    70    2
    43    88    89    1
    44    70    69    1
    45    32    33    2
    46    74    72    1
    47    92    93    2
    48     1     2    1
    49     2     3    1
    50    75    73    1
    51    73    72    1
    52    66    65    2
    53    72    69    1
    54    33    34    1
    55    33    35    1
    56    69    68    1
    57    13     7    1
    58    13    12    1
    59     3     7   am
    60     3     4    2
    61    10     9    2
    62     7     8    1
    63    65    64    1
    64    64    67    1
    65    64    63    1
    66    12    11    1
    67     9     8    1
    68    58    57    2
    69    62    60    1
    70    54    52   ar
    71    54    53   ar
    72     8    11    1
    73    52    50   ar
    74    63    57   am
    75    60    59    1
    76    44    43    2
    77    42    43    1
    78    42    41    1
    79    57    56    1
    80    53    51   ar
    81    43    45   am
    82    45    46    1
    83    59    56    1
    84    59    61    1
    85    50    51   ar
    86    50    49    1
    87    46    49    1
    88    46    47    1
    89    56    55    1
    90    48    47    2
