@<TRIPOS>MOLECULE
tmp/2cutA00.pdb
 116 109 0 0 0
SMALL
GASTEIGER

@<TRIPOS>ATOM
      1  N         15.2080  -34.0060   31.6380 N.3    27  GLY27      -0.1210
      2  CA        14.0360  -33.4620   30.9840 C.3    27  GLY27       0.1956
      3  C         12.9000  -33.1620   31.9830 C.2    27  GLY27       0.2613
      4  O         12.9440  -33.5480   33.1500 O.2    27  GLY27      -0.2717
      5  N         11.8690  -32.4570   31.5240 N.am   28  SER28      -0.1938
      6  CA        10.7080  -32.1220   32.3300 C.3    28  SER28       0.2055
      7  C         10.0810  -33.4240   32.8260 C.2    28  SER28       0.2644
      8  O         10.0280  -34.4330   32.0710 O.2    28  SER28      -0.2714
      9  CB         9.6790  -31.3690   31.4950 C.3    28  SER28       0.2130
     10  OG        10.2050  -30.1940   30.9080 O.3    28  SER28      -0.2179
     11  N          9.7540  -33.3730   34.1250 N.am   29  THR29      -0.1936
     12  CA         9.0770  -34.4510   34.7860 C.3    29  THR29       0.2028
     13  C          9.9430  -35.6730   35.0820 C.2    29  THR29       0.2642
     14  O          9.4500  -36.6230   35.7120 O.2    29  THR29      -0.2714
     15  CB         7.8290  -34.7010   33.8580 C.3    29  THR29       0.1808
     16  OG1        6.8310  -33.8540   34.4490 O.3    29  THR29      -0.2208
     17  CG2        7.5270  -36.1370   33.5570 C.3    29  THR29       0.0379
     18  N         11.2230  -35.6890   34.7060 N.am   30  GLU30      -0.1976
     19  CA        12.0200  -36.8600   34.9780 C.3    30  GLU30       0.1602
     20  C         12.4040  -37.0240   36.4480 C.2    30  GLU30       0.2287
     21  O         12.4300  -36.0180   37.1680 O.2    30  GLU30      -0.2864
     22  CB        13.2250  -36.7660   34.1090 C.3    30  GLU30       0.0415
     23  CG        12.9000  -36.9160   32.6410 C.3    30  GLU30       0.1163
     24  CD        14.1010  -37.4980   31.9420 C.2    30  GLU30       0.3649
     25  OE1       15.1840  -36.9240   31.9610 O.co2  30  GLU30      -0.2457
     26  OE2       13.9640  -38.5510   31.3650 O.co2  30  GLU30      -0.2457
     27  N          7.0840  -28.7290   33.5100 N.3    67  LEU67      -0.1245
     28  CA         6.6930  -28.7010   32.1050 C.3    67  LEU67       0.1561
     29  C          6.3240  -27.2850   31.6880 C.2    67  LEU67       0.2260
     30  O          6.7040  -26.8450   30.6100 O.2    67  LEU67      -0.2867
     31  CB         5.5550  -29.6960   31.9810 C.3    67  LEU67       0.0270
     32  CG         5.2610  -30.5190   30.7800 C.3    67  LEU67       0.0019
     33  CD1        6.4660  -31.0720   30.0150 C.3    67  LEU67       0.0001
     34  CD2        4.4710  -31.6730   31.3660 C.3    67  LEU67       0.0001
     35  N          9.0860  -24.6600   30.1210 N.3    70  ASN70      -0.1240
     36  CA         9.4780  -24.7960   28.7350 C.3    70  ASN70       0.1653
     37  C          9.0170  -23.6240   27.9270 C.2    70  ASN70       0.2266
     38  O          9.6310  -23.2600   26.9400 O.2    70  ASN70      -0.2867
     39  CB         8.8920  -26.0240   28.1020 C.3    70  ASN70       0.1155
     40  CG         9.5630  -27.3090   28.5040 C.2    70  ASN70       0.2627
     41  OD1       10.7380  -27.5570   28.1840 O.2    70  ASN70      -0.2716
     42  ND2        8.8590  -28.2150   29.1690 N.am   70  ASN70      -0.0877
     43  N         18.7610  -33.1320   28.4760 N.3   105  TYR105     -0.1227
     44  CA        17.6820  -33.6440   27.6500 C.3   105  TYR105      0.1736
     45  C         16.4810  -32.7050   27.7890 C.2   105  TYR105      0.2596
     46  O         16.0890  -32.2590   28.8750 O.2   105  TYR105     -0.2718
     47  CB        17.3680  -35.0580   28.1180 C.3   105  TYR105      0.0548
     48  CG        16.1010  -35.7190   27.5590 C.ar  105  TYR105     -0.0200
     49  CD1       15.7620  -35.6590   26.2200 C.ar  105  TYR105     -0.0009
     50  CD2       15.2520  -36.3390   28.4540 C.ar  105  TYR105     -0.0009
     51  CE1       14.5770  -36.2070   25.7660 C.ar  105  TYR105      0.0417
     52  CE2       14.0560  -36.8940   28.0130 C.ar  105  TYR105      0.0417
     53  CZ        13.7410  -36.8100   26.6810 C.ar  105  TYR105      0.1957
     54  OH        12.5490  -37.3400   26.2700 O.3   105  TYR105     -0.2866
     55  N         15.9460  -32.3350   26.6200 N.am  106  SER106     -0.1938
     56  CA        14.7140  -31.5900   26.4840 C.3   106  SER106      0.2055
     57  C         14.8380  -30.2640   27.2250 C.2   106  SER106      0.2642
     58  O         15.7120  -29.4800   26.8150 O.2   106  SER106     -0.2714
     59  CB        13.6190  -32.5330   27.0080 C.3   106  SER106      0.2130
     60  OG        12.3160  -32.1130   26.6090 O.3   106  SER106     -0.2179
     61  N         14.0540  -29.9510   28.2720 N.am  107  GLN107     -0.1976
     62  CA        14.2350  -28.7020   28.9780 C.3   107  GLN107      0.1601
     63  C         15.6500  -28.5950   29.5670 C.2   107  GLN107      0.2287
     64  O         16.1940  -27.4900   29.6560 O.2   107  GLN107     -0.2864
     65  CB        13.2280  -28.5780   30.1260 C.3   107  GLN107      0.0394
     66  CG        13.4010  -27.2660   30.8800 C.3   107  GLN107      0.0908
     67  CD        12.4600  -26.9680   32.0360 C.2   107  GLN107      0.2608
     68  OE1       12.6620  -25.9990   32.7830 O.2   107  GLN107     -0.2717
     69  NE2       11.4390  -27.7940   32.2650 N.am  107  GLN107     -0.0878
     70  N         15.2990  -28.4310   22.8750 N.3   136  THR136     -0.1218
     71  CA        14.1160  -27.6030   22.6270 C.3   136  THR136      0.1862
     72  C         14.3970  -26.3080   21.8880 C.2   136  THR136      0.2287
     73  O         13.4810  -25.6820   21.3590 O.2   136  THR136     -0.2866
     74  CB        13.4210  -27.2530   23.9530 C.3   136  THR136      0.1770
     75  OG1       14.4120  -26.7550   24.8470 O.3   136  THR136     -0.2211
     76  CG2       12.7290  -28.4720   24.5520 C.3   136  THR136      0.0375
     77  N         10.1700  -31.2130   19.0510 N.3   163  VAL163     -0.1245
     78  CA        10.7850  -30.1510   19.8810 C.3   163  VAL163      0.1561
     79  C         12.0690  -29.5730   19.2550 C.2   163  VAL163      0.2260
     80  O         12.4710  -28.4610   19.5570 O.2   163  VAL163     -0.2867
     81  CB        11.1090  -30.6470   21.3470 C.3   163  VAL163      0.0252
     82  CG1        9.8270  -31.2990   21.8920 C.3   163  VAL163      0.0019
     83  CG2       12.3800  -31.5180   21.4080 C.3   163  VAL163      0.0019
     84  N          6.7180  -27.5280   20.9830 N.3   168  LEU168     -0.1245
     85  CA         6.8120  -28.2050   22.2410 C.3   168  LEU168      0.1561
     86  C          5.9180  -29.4300   22.1750 C.2   168  LEU168      0.2260
     87  O          5.6270  -30.0530   23.1990 O.2   168  LEU168     -0.2867
     88  CB         6.4210  -27.1810   23.3120 C.3   168  LEU168      0.0270
     89  CG         7.5160  -26.1350   23.6320 C.3   168  LEU168      0.0019
     90  CD1        7.0750  -25.2160   24.7660 C.3   168  LEU168      0.0001
     91  CD2        8.7890  -26.8380   24.1220 C.3   168  LEU168      0.0001
     92  N          5.2570  -33.1260   22.0830 N.3   170  VAL170     -0.1245
     93  CA         5.9640  -34.3630   22.3080 C.3   170  VAL170      0.1561
     94  C          5.4270  -35.5120   21.4560 C.2   170  VAL170      0.2260
     95  O          4.2800  -35.9520   21.5420 O.2   170  VAL170     -0.2867
     96  CB         5.8980  -34.7490   23.7830 C.3   170  VAL170      0.0252
     97  CG1        6.7430  -35.9870   24.0120 C.3   170  VAL170      0.0019
     98  CG2        6.4560  -33.6150   24.6450 C.3   170  VAL170      0.0019
     99  N         10.8450  -38.2350   20.4920 N.3   174  HIS174     -0.1226
    100  CA        11.3810  -37.5060   21.6240 C.3   174  HIS174      0.1752
    101  C         11.7250  -38.4300   22.7730 C.2   174  HIS174      0.2595
    102  O         12.5600  -38.0700   23.5930 O.2   174  HIS174     -0.2718
    103  CB        10.3890  -36.4550   22.1470 C.3   174  HIS174      0.0759
    104  CG        11.0430  -35.4800   23.1420 C.ar  174  HIS174      0.0818
    105  ND1       12.0730  -34.6540   22.9260 N.ar  174  HIS174     -0.2268
    106  CD2       10.6040  -35.2580   24.4290 C.ar  174  HIS174      0.1154
    107  CE1       12.2600  -33.9430   24.0070 C.ar  174  HIS174      0.1986
    108  NE2       11.3750  -34.3100   24.9050 N.ar  174  HIS174     -0.2212
    109  N         11.0620  -39.5760   22.8030 N.am  175  LEU175     -0.1980
    110  CA        11.2330  -40.5510   23.8200 C.3   175  LEU175      0.1596
    111  C         12.2080  -41.6080   23.3410 C.2   175  LEU175      0.2287
    112  O         12.3380  -42.6580   23.9540 O.2   175  LEU175     -0.2864
    113  CB         9.8500  -41.1790   24.1580 C.3   175  LEU175      0.0297
    114  CG         8.6920  -40.4410   24.9070 C.3   175  LEU175      0.0022
    115  CD1        9.2650  -39.5110   25.9710 C.3   175  LEU175      0.0001
    116  CD2        7.9180  -39.5250   23.9860 C.3   175  LEU175      0.0001
@<TRIPOS>BOND
     1    77    78    1
     2    79    80    2
     3    79    78    1
     4    78    81    1
     5    99   100    1
     6    84    85    1
     7    81    83    1
     8    81    82    1
     9    73    72    2
    10    94    95    2
    11    94    93    1
    12   100   103    1
    13   100   101    1
    14    72    71    1
    15    92    93    1
    16   103   104    1
    17    86    85    1
    18    86    87    2
    19    85    88    1
    20    93    96    1
    21    71    70    1
    22    71    74    1
    23   101   109   am
    24   101   102    2
    25   109   110    1
    26   105   104   ar
    27   105   107   ar
    28   104   106   ar
    29    88    89    1
    30   111   110    1
    31   111   112    2
    32    89    91    1
    33    89    90    1
    34    96    97    1
    35    96    98    1
    36   110   113    1
    37    74    76    1
    38    74    75    1
    39   116   114    1
    40   107   108   ar
    41   113   114    1
    42   106   108   ar
    43   114   115    1
    44    51    49   ar
    45    51    53   ar
    46    49    48   ar
    47    54    53    1
    48    56    55    1
    49    56    59    1
    50    56    57    1
    51    60    59    1
    52    55    45   am
    53    53    52   ar
    54    58    57    2
    55    38    37    2
    56    57    61   am
    57    48    47    1
    58    48    50   ar
    59    44    45    1
    60    44    47    1
    61    44    43    1
    62    45    46    2
    63    37    36    1
    64    52    50   ar
    65    39    40    1
    66    39    36    1
    67    41    40    2
    68    61    62    1
    69    40    42   am
    70    36    35    1
    71    62    63    1
    72    62    65    1
    73    63    64    2
    74    33    32    1
    75    65    66    1
    76    30    29    2
    77    32    34    1
    78    32    31    1
    79    66    67    1
    80    10     9    1
    81     2     1    1
    82     2     3    1
    83    26    24   ar
    84     9     6    1
    85     5     3   am
    86     5     6    1
    87    29    28    1
    88    24    25   ar
    89    24    23    1
    90    31    28    1
    91     3     4    2
    92    67    69   am
    93    67    68    2
    94     8     7    2
    95    28    27    1
    96     6     7    1
    97    23    22    1
    98     7    11   am
    99    17    15    1
   100    15    16    1
   101    15    12    1
   102    22    19    1
   103    11    12    1
   104    18    19    1
   105    18    13   am
   106    12    13    1
   107    19    20    1
   108    13    14    2
   109    20    21    2
