@<TRIPOS>MOLECULE
tmp/2cv2C00.pdb
 205 200 0 0 0
SMALL
GASTEIGER

@<TRIPOS>ATOM
      1  N         37.6570   79.6220   42.0030 N.3     5  ARG5       -0.1231
      2  CA        38.8180   79.3070   42.8240 C.3     5  ARG5        0.1694
      3  C         38.5090   78.8880   44.2270 C.2     5  ARG5        0.2592
      4  O         37.4290   79.1480   44.7420 O.2     5  ARG5       -0.2718
      5  CB        39.8080   80.4700   42.9020 C.3     5  ARG5        0.0321
      6  CG        39.2490   81.8300   43.2990 C.3     5  ARG5        0.0489
      7  CD        38.3050   81.8150   44.4660 C.3     5  ARG5        0.2205
      8  NE        37.9870   83.1750   44.9160 N.pl3   5  ARG5       -0.0865
      9  CZ        37.2360   83.4360   45.9820 C.cat   5  ARG5        0.5346
     10  NH1       36.7230   82.4400   46.6900 N.pl3   5  ARG5        0.1354
     11  NH2       37.0260   84.6820   46.3670 N.pl3   5  ARG5        0.1354
     12  N         39.4760   78.2070   44.8230 N.am    6  ILE6       -0.1966
     13  CA        39.4010   77.7710   46.2040 C.3     6  ILE6        0.1727
     14  C         40.5900   78.5490   46.8010 C.2     6  ILE6        0.2616
     15  O         41.7180   78.5160   46.2710 O.2     6  ILE6       -0.2715
     16  CB        39.5550   76.2170   46.3170 C.3     6  ILE6        0.0290
     17  CG1       39.2820   75.7610   47.7510 C.3     6  ILE6        0.0022
     18  CG2       40.9150   75.7840   45.8480 C.3     6  ILE6        0.0023
     19  CD1       37.8710   76.0170   48.2190 C.3     6  ILE6        0.0001
     20  N         40.3130   79.3160   47.8490 N.am    7  ALA7       -0.1964
     21  CA        41.3320   80.1420   48.4790 C.3     7  ALA7        0.1713
     22  C         41.5420   79.7220   49.9220 C.2     7  ALA7        0.2458
     23  O         41.2420   80.4730   50.8320 O.2     7  ALA7       -0.2730
     24  CB        40.9050   81.6060   48.4230 C.3     7  ALA7        0.0333
     25  N         42.0680   78.5110   50.1460 N.am    8  PRO8       -0.2716
     26  CA        42.3200   77.9800   51.4940 C.3     8  PRO8        0.1536
     27  C         43.2630   78.8630   52.2740 C.2     8  PRO8        0.2599
     28  O         44.1240   79.5420   51.7020 O.2     8  PRO8       -0.2715
     29  CB        42.9870   76.6300   51.2390 C.3     8  PRO8        0.0310
     30  CG        42.7100   76.3210   49.8330 C.3     8  PRO8        0.0237
     31  CD        42.6480   77.6320   49.1200 C.3     8  PRO8        0.0939
     32  N         43.1040   78.8230   53.5870 N.am    9  SER9       -0.1950
     33  CA        43.9580   79.5670   54.4940 C.3     9  SER9        0.1924
     34  C         44.7780   78.5140   55.2720 C.2     9  SER9        0.2314
     35  O         44.2260   77.7790   56.0810 O.2     9  SER9       -0.2863
     36  CB        43.0700   80.3910   55.4140 C.3     9  SER9        0.2116
     37  OG        43.7000   80.6620   56.6480 O.3     9  SER9       -0.2180
     38  N         40.8380   71.1340   56.0180 N.3    15  HIS15      -0.1241
     39  CA        39.4410   71.1360   56.4360 C.3    15  HIS15       0.1621
     40  C         38.4300   70.5640   55.4530 C.2    15  HIS15       0.2264
     41  O         38.4480   70.9030   54.2830 O.2    15  HIS15      -0.2867
     42  CB        39.0680   72.5720   56.8040 C.3    15  HIS15       0.0745
     43  CG        37.9960   72.6660   57.8340 C.ar   15  HIS15       0.0817
     44  ND1       36.6550   72.5710   57.5250 N.ar   15  HIS15      -0.2268
     45  CD2       38.0670   72.7970   59.1770 C.ar   15  HIS15       0.1154
     46  CE1       35.9460   72.6400   58.6370 C.ar   15  HIS15       0.1986
     47  NE2       36.7800   72.7760   59.6530 N.ar   15  HIS15      -0.2212
     48  N         35.5350   71.3180   55.0600 N.3    17  GLY17      -0.1210
     49  CA        34.7400   72.3980   54.4870 C.3    17  GLY17       0.1956
     50  C         35.4290   72.9140   53.2420 C.2    17  GLY17       0.2612
     51  O         34.7820   73.4000   52.3100 O.2    17  GLY17      -0.2717
     52  N         36.7570   72.8000   53.2460 N.am   18  THR18      -0.1952
     53  CA        37.5790   73.2210   52.1340 C.3    18  THR18       0.1897
     54  C         37.3560   72.2940   50.9770 C.2    18  THR18       0.2313
     55  O         37.2760   72.7450   49.8470 O.2    18  THR18      -0.2863
     56  CB        39.0550   73.1840   52.4830 C.3    18  THR18       0.1794
     57  OG1       39.3180   74.2020   53.4330 O.3    18  THR18      -0.2208
     58  CG2       39.8950   73.4920   51.2780 C.3    18  THR18       0.0378
     59  N         34.6790   70.4220   50.4560 N.3    20  TYR20      -0.1227
     60  CA        33.3070   70.6570   50.0670 C.3    20  TYR20       0.1736
     61  C         33.1570   71.8500   49.1370 C.2    20  TYR20       0.2595
     62  O         32.5120   71.7490   48.0940 O.2    20  TYR20      -0.2718
     63  CB        32.4750   70.8760   51.3140 C.3    20  TYR20       0.0548
     64  CG        31.0960   71.3860   51.0820 C.ar   20  TYR20      -0.0200
     65  CD1       30.1280   70.5680   50.5260 C.ar   20  TYR20      -0.0009
     66  CD2       30.7370   72.6680   51.4830 C.ar   20  TYR20      -0.0009
     67  CE1       28.8100   71.0010   50.3760 C.ar   20  TYR20       0.0417
     68  CE2       29.4250   73.1220   51.3380 C.ar   20  TYR20       0.0417
     69  CZ        28.4660   72.2710   50.7830 C.ar   20  TYR20       0.1957
     70  OH        27.1580   72.6760   50.6450 O.3    20  TYR20      -0.2866
     71  N         33.7480   72.9840   49.5030 N.am   21  ILE21      -0.1980
     72  CA        33.6200   74.1530   48.6520 C.3    21  ILE21       0.1595
     73  C         34.4050   73.9470   47.3430 C.2    21  ILE21       0.2287
     74  O         33.8960   74.2680   46.2590 O.2    21  ILE21      -0.2864
     75  CB        34.0950   75.4350   49.3810 C.3    21  ILE21       0.0276
     76  CG1       33.0770   75.8330   50.4550 C.3    21  ILE21       0.0022
     77  CG2       34.2670   76.5800   48.4200 C.3    21  ILE21       0.0022
     78  CD1       31.7130   76.1560   49.9240 C.3    21  ILE21       0.0001
     79  N         45.8500   81.5540   50.8130 N.3    41  GLU41      -0.1245
     80  CA        45.7090   82.7930   51.5430 C.3    41  GLU41       0.1567
     81  C         46.4250   82.7410   52.8920 C.2    41  GLU41       0.2260
     82  O         45.8150   82.4790   53.9350 O.2    41  GLU41      -0.2867
     83  CB        44.2150   83.1250   51.6720 C.3    41  GLU41       0.0388
     84  CG        43.4920   83.1300   50.3120 C.3    41  GLU41       0.1160
     85  CD        42.3760   84.1880   50.1770 C.2    41  GLU41       0.3649
     86  OE1       41.6180   84.3920   51.1510 O.co2  41  GLU41      -0.2457
     87  OE2       42.2440   84.8020   49.0840 O.co2  41  GLU41      -0.2457
     88  N         48.5160   83.0970   62.8240 N.3    47  ARG47      -0.1245
     89  CA        47.8210   81.8200   62.7040 C.3    47  ARG47       0.1563
     90  C         48.4400   80.8740   61.6820 C.2    47  ARG47       0.2260
     91  O         47.9430   79.7680   61.4870 O.2    47  ARG47      -0.2867
     92  CB        46.3530   82.0410   62.3370 C.3    47  ARG47       0.0307
     93  CG        45.6000   82.9670   63.2780 C.3    47  ARG47       0.0489
     94  CD        44.1160   82.6670   63.2200 C.3    47  ARG47       0.2205
     95  NE        43.6170   82.6380   61.8460 N.pl3  47  ARG47      -0.0865
     96  CZ        42.6090   81.8720   61.4250 C.cat  47  ARG47       0.5346
     97  NH1       41.9840   81.0590   62.2770 N.pl3  47  ARG47       0.1354
     98  NH2       42.2210   81.9190   60.1510 N.pl3  47  ARG47       0.1354
     99  N         42.1800   89.8660   54.8040 N.3   187  TYR187     -0.1241
    100  CA        41.4410   89.0600   53.8660 C.3   187  TYR187      0.1605
    101  C         40.7140   89.9500   52.8420 C.2   187  TYR187      0.2264
    102  O         40.8280   89.7500   51.6520 O.2   187  TYR187     -0.2867
    103  CB        40.4120   88.2210   54.6290 C.3   187  TYR187      0.0534
    104  CG        39.3430   87.6280   53.7380 C.ar  187  TYR187     -0.0201
    105  CD1       39.5790   86.4520   53.0230 C.ar  187  TYR187     -0.0009
    106  CD2       38.1000   88.2780   53.5670 C.ar  187  TYR187     -0.0009
    107  CE1       38.6290   85.9420   52.1690 C.ar  187  TYR187      0.0417
    108  CE2       37.1390   87.7730   52.7110 C.ar  187  TYR187      0.0417
    109  CZ        37.4080   86.6030   52.0140 C.ar  187  TYR187      0.1957
    110  OH        36.4630   86.0800   51.1630 O.3   187  TYR187     -0.2866
    111  N         41.5720   89.5590   48.8590 N.3   191  ASN191     -0.1240
    112  CA        40.5640   88.8260   48.1330 C.3   191  ASN191      0.1653
    113  C         40.0740   89.5110   46.8690 C.2   191  ASN191      0.2266
    114  O         39.9750   88.8810   45.8190 O.2   191  ASN191     -0.2867
    115  CB        39.3970   88.5410   49.0660 C.3   191  ASN191      0.1155
    116  CG        38.6270   87.2990   48.6620 C.2   191  ASN191      0.2627
    117  OD1       37.6600   87.3870   47.8960 O.2   191  ASN191     -0.2716
    118  ND2       39.0580   86.1250   49.1570 N.am  191  ASN191     -0.0877
    119  N         32.4560   81.2870   44.6660 N.3   204  ILE204     -0.1231
    120  CA        31.6510   80.3130   45.3960 C.3   204  ILE204      0.1692
    121  C         32.4100   80.0600   46.7000 C.2   204  ILE204      0.2592
    122  O         33.5440   79.5890   46.6900 O.2   204  ILE204     -0.2718
    123  CB        31.5630   79.0070   44.5930 C.3   204  ILE204      0.0266
    124  CG1       31.1160   79.3180   43.1640 C.3   204  ILE204      0.0019
    125  CG2       30.6160   78.0430   45.2530 C.3   204  ILE204      0.0020
    126  CD1       31.4230   78.2050   42.1730 C.3   204  ILE204      0.0001
    127  N         31.7940   80.4020   47.8220 N.am  205  ARG205     -0.1966
    128  CA        32.4220   80.2280   49.1270 C.3   205  ARG205      0.1729
    129  C         31.2480   79.9840   50.0870 C.2   205  ARG205      0.2616
    130  O         30.1010   80.1670   49.6940 O.2   205  ARG205     -0.2715
    131  CB        33.1900   81.4990   49.4810 C.3   205  ARG205      0.0348
    132  CG        32.3060   82.5780   50.0450 C.3   205  ARG205      0.0492
    133  CD        32.2300   83.8440   49.2150 C.3   205  ARG205      0.2205
    134  NE        33.4150   84.6790   49.3440 N.pl3 205  ARG205     -0.0865
    135  CZ        33.4200   86.0110   49.2870 C.cat 205  ARG205      0.5346
    136  NH1       32.3060   86.7110   49.1120 N.pl3 205  ARG205      0.1354
    137  NH2       34.5670   86.6550   49.3830 N.pl3 205  ARG205      0.1354
    138  N         31.4920   79.5730   51.3250 N.am  206  ALA206     -0.1977
    139  CA        30.3500   79.3160   52.1990 C.3   206  ALA206      0.1597
    140  C         29.7050   80.5800   52.6850 C.2   206  ALA206      0.2287
    141  O         30.3040   81.6470   52.6880 O.2   206  ALA206     -0.2864
    142  CB        30.7430   78.4580   53.3910 C.3   206  ALA206      0.0319
    143  N         29.1620   81.8240   55.4580 N.3   208  GLU208     -0.1231
    144  CA        29.7350   82.5960   56.5450 C.3   208  GLU208      0.1699
    145  C         30.2680   83.9480   56.0360 C.2   208  GLU208      0.2592
    146  O         30.5090   84.8610   56.8170 O.2   208  GLU208     -0.2718
    147  CB        30.8790   81.8140   57.1850 C.3   208  GLU208      0.0402
    148  CG        32.1060   81.7250   56.2990 C.3   208  GLU208      0.1161
    149  CD        33.1040   80.6970   56.7820 C.2   208  GLU208      0.3649
    150  OE1       33.1200   80.4070   57.9990 O.co2 208  GLU208     -0.2457
    151  OE2       33.8830   80.1860   55.9490 O.co2 208  GLU208     -0.2457
    152  N         30.4590   84.0620   54.7270 N.am  209  TRP209     -0.1976
    153  CA        30.9730   85.2710   54.1070 C.3   209  TRP209      0.1640
    154  C         29.9570   86.2530   53.5410 C.2   209  TRP209      0.2290
    155  O         30.3630   87.3730   53.1620 O.2   209  TRP209     -0.2864
    156  CB        31.9130   84.9210   52.9600 C.3   209  TRP209      0.0576
    157  CG        33.1260   84.2420   53.3890 C.ar  209  TRP209      0.0006
    158  CD1       33.4070   82.9150   53.2610 C.ar  209  TRP209      0.0946
    159  CD2       34.2370   84.8300   54.0560 C.ar  209  TRP209      0.0152
    160  NE1       34.6310   82.6360   53.8120 N.ar  209  TRP209     -0.2442
    161  CE2       35.1640   83.7940   54.3110 C.ar  209  TRP209      0.0810
    162  CE3       34.5440   86.1320   54.4690 C.ar  209  TRP209      0.0012
    163  CZ2       36.3850   84.0150   54.9600 C.ar  209  TRP209      0.0191
    164  CZ3       35.7650   86.3550   55.1200 C.ar  209  TRP209      0.0001
    165  CH2       36.6660   85.2930   55.3560 C.ar  209  TRP209      0.0015
    166  N         25.9930   76.5450   51.8030 N.3   234  PRO234     -0.2102
    167  CA        25.6770   76.3940   53.2180 C.3   234  PRO234      0.1504
    168  C         26.8720   75.8390   53.9890 C.2   234  PRO234      0.2576
    169  O         27.7110   75.1490   53.4110 O.2   234  PRO234     -0.2718
    170  CB        24.4760   75.4430   53.1910 C.3   234  PRO234      0.0282
    171  CG        24.7930   74.5490   52.0110 C.3   234  PRO234      0.0208
    172  CD        25.2850   75.5420   50.9810 C.3   234  PRO234      0.0893
    173  N         26.9520   76.1570   55.2810 N.am  235  LEU235     -0.1966
    174  CA        28.0290   75.6800   56.1410 C.3   235  LEU235      0.1728
    175  C         27.7750   74.2650   56.6280 C.2   235  LEU235      0.2616
    176  O         26.6710   73.9550   57.0960 O.2   235  LEU235     -0.2715
    177  CB        28.1440   76.5120   57.4090 C.3   235  LEU235      0.0311
    178  CG        28.8240   77.8600   57.4980 C.3   235  LEU235      0.0022
    179  CD1       30.0890   77.8530   56.6670 C.3   235  LEU235      0.0001
    180  CD2       27.8660   78.9110   57.0540 C.3   235  LEU235      0.0001
    181  N         28.7900   73.4150   56.5470 N.am  236  LEU236     -0.1977
    182  CA        28.6690   72.0680   57.0640 C.3   236  LEU236      0.1596
    183  C         28.5570   72.2130   58.6020 C.2   236  LEU236      0.2287
    184  O         29.1700   73.1190   59.1900 O.2   236  LEU236     -0.2864
    185  CB        29.9050   71.2790   56.6940 C.3   236  LEU236      0.0297
    186  CG        29.8900   70.3960   55.4490 C.3   236  LEU236      0.0022
    187  CD1       29.0080   70.9460   54.3740 C.3   236  LEU236      0.0001
    188  CD2       31.3180   70.2510   54.9870 C.3   236  LEU236      0.0001
    189  N         28.3100   75.1910   63.4180 N.3   243  LYS243     -0.1231
    190  CA        29.2800   75.1270   62.3160 C.3   243  LYS243      0.1693
    191  C         30.2720   74.0330   62.6750 C.2   243  LYS243      0.2591
    192  O         30.8180   74.0190   63.7770 O.2   243  LYS243     -0.2718
    193  CB        30.0170   76.4450   62.1910 C.3   243  LYS243      0.0285
    194  CG        30.6280   76.7020   60.8350 C.3   243  LYS243      0.0035
    195  CD        31.4280   77.9900   60.8470 C.3   243  LYS243      0.0206
    196  CE        32.5790   77.8870   61.8470 C.3   243  LYS243      0.1093
    197  NZ        33.5990   78.9420   61.6040 N.3   243  LYS243     -0.1314
    198  N         30.4940   73.1070   61.7580 N.am  244  ILE244     -0.1980
    199  CA        31.3750   71.9820   62.0180 C.3   244  ILE244      0.1595
    200  C         32.7150   72.4460   62.6050 C.2   244  ILE244      0.2287
    201  O         33.2390   73.4790   62.1950 O.2   244  ILE244     -0.2864
    202  CB        31.5270   71.1480   60.7120 C.3   244  ILE244      0.0276
    203  CG1       31.8420   69.6900   61.0530 C.3   244  ILE244      0.0022
    204  CG2       32.5780   71.7790   59.7840 C.3   244  ILE244      0.0022
    205  CD1       31.7960   68.7660   59.8380 C.3   244  ILE244      0.0001
@<TRIPOS>BOND
     1     1     2    1
     2   126   124    1
     3     2     5    1
     4     2     3    1
     5     5     6    1
     6   124   123    1
     7     6     7    1
     8     3     4    2
     9     3    12   am
    10     7     8    1
    11   123   125    1
    12   123   120    1
    13   119   120    1
    14    12    13    1
    15     8     9    2
    16   120   121    1
    17   114   113    2
    18    18    16    1
    19     9    11    1
    20     9    10    1
    21    13    16    1
    22    13    14    1
    23    74    73    2
    24    15    14    2
    25    16    17    1
    26   122   121    2
    27   121   127   am
    28    14    20   am
    29   113   112    1
    30    73    72    1
    31    17    19    1
    32   127   128    1
    33    20    21    1
    34   117   116    2
    35    62    61    2
    36   112   111    1
    37   112   115    1
    38    77    75    1
    39    24    21    1
    40    21    22    1
    41    72    75    1
    42    72    71    1
    43   116   115    1
    44   116   118   am
    45    87    85   ar
    46   136   135    1
    47    31    30    1
    48    31    25    1
    49   128   131    1
    50   128   129    1
    51    61    71   am
    52    61    60    1
    53   133   134    1
    54   133   132    1
    55   135   134    2
    56   135   137    1
    57    75    76    1
    58   131   132    1
    59   130   129    2
    60    30    29    1
    61    55    54    2
    62    22    25   am
    63    22    23    2
    64    78    76    1
    65    60    59    1
    66    60    63    1
    67   129   138   am
    68    25    26    1
    69    85    84    1
    70    85    86   ar
    71    84    83    1
    72    67    65   ar
    73    67    69   ar
    74    65    64   ar
    75    70    69    1
    76    69    68   ar
    77    79    80    1
    78    54    53    1
    79   172   166    1
    80   172   171    1
    81    64    63    1
    82    64    66   ar
    83   110   109    1
    84    29    26    1
    85    58    56    1
    86   138   139    1
    87    68    66   ar
    88    26    27    1
    89    80    83    1
    90    80    81    1
    91   102   101    2
    92    28    27    2
    93   166   167    1
    94   171   170    1
    95   109   107   ar
    96   109   108   ar
    97    53    56    1
    98    53    52    1
    99   107   105   ar
   100   139   140    1
   101   139   142    1
   102    27    32   am
   103    51    50    2
   104    56    57    1
   105   140   141    2
   106   108   106   ar
   107   101   100    1
   108    81    82    2
   109   156   157    1
   110   156   153    1
   111   105   104   ar
   112   155   154    2
   113   170   167    1
   114   167   168    1
   115    50    52   am
   116    50    49    1
   117   158   157   ar
   118   158   160   ar
   119   157   159   ar
   120   169   168    2
   121   154   153    1
   122   106   104   ar
   123    32    33    1
   124   104   103    1
   125   160   161   ar
   126   100   103    1
   127   100    99    1
   128   168   173   am
   129   159   161   ar
   130   159   162   ar
   131   153   152    1
   132    41    40    2
   133   161   163   ar
   134   187   186    1
   135   162   164   ar
   136    49    48    1
   137    33    34    1
   138    33    36    1
   139   152   145   am
   140   163   165   ar
   141   188   186    1
   142   164   165   ar
   143    34    35    2
   144   173   174    1
   145    36    37    1
   146   186   185    1
   147    40    39    1
   148   143   144    1
   149   151   149   ar
   150    38    39    1
   151   145   144    1
   152   145   146    2
   153   174   175    1
   154   174   177    1
   155   148   149    1
   156   148   147    1
   157    39    42    1
   158   144   147    1
   159   181   175   am
   160   181   182    1
   161   175   176    2
   162   179   178    1
   163   185   182    1
   164   149   150   ar
   165    42    43    1
   166   180   178    1
   167   182   183    1
   168   177   178    1
   169    44    43   ar
   170    44    46   ar
   171    43    45   ar
   172   183   184    2
   173    46    47   ar
   174    45    47   ar
   175   204   202    1
   176   205   203    1
   177    98    96    1
   178   202   203    1
   179   202   199    1
   180   194   195    1
   181   194   193    1
   182   195   196    1
   183    96    95    2
   184    96    97    1
   185    91    90    2
   186   197   196    1
   187    90    89    1
   188   198   199    1
   189   198   191   am
   190    95    94    1
   191   199   200    1
   192   193   190    1
   193   201   200    2
   194   190   191    1
   195   190   189    1
   196    92    89    1
   197    92    93    1
   198   191   192    2
   199    89    88    1
   200    94    93    1
