@<TRIPOS>MOLECULE
tmp/2cv3A00.pdb
 203 197 0 0 0
SMALL
GASTEIGER

@<TRIPOS>ATOM
      1  N         21.7200  -23.0340   30.8880 N.3    20  TYR20      -0.1241
      2  CA        21.1800  -21.7510   30.5430 C.3    20  TYR20       0.1605
      3  C         20.6690  -21.7910   29.0860 C.2    20  TYR20       0.2264
      4  O         21.1200  -22.5960   28.2730 O.2    20  TYR20      -0.2867
      5  CB        22.2390  -20.6600   30.7420 C.3    20  TYR20       0.0534
      6  CG        23.3660  -20.7230   29.7740 C.ar   20  TYR20      -0.0201
      7  CD1       24.4190  -21.6100   29.9570 C.ar   20  TYR20      -0.0009
      8  CD2       23.4170  -19.8420   28.6840 C.ar   20  TYR20      -0.0009
      9  CE1       25.5100  -21.6150   29.0830 C.ar   20  TYR20       0.0417
     10  CE2       24.4910  -19.8470   27.8220 C.ar   20  TYR20       0.0417
     11  CZ        25.5270  -20.7270   28.0200 C.ar   20  TYR20       0.1957
     12  OH        26.5700  -20.7460   27.1420 O.3    20  TYR20      -0.2866
     13  N         22.0660  -25.1260   27.4480 N.3    27  ALA27      -0.1231
     14  CA        23.4800  -25.5210   27.5040 C.3    27  ALA27       0.1694
     15  C         23.9630  -25.6900   28.9350 C.2    27  ALA27       0.2592
     16  O         23.7660  -24.8190   29.7470 O.2    27  ALA27      -0.2718
     17  CB        24.3590  -24.4610   26.8240 C.3    27  ALA27       0.0304
     18  N         24.6090  -26.8080   29.2280 N.am   28  HIS28      -0.1962
     19  CA        25.1390  -27.0240   30.5770 C.3    28  HIS28       0.1787
     20  C         26.2320  -25.9820   30.8360 C.2    28  HIS28       0.2621
     21  O         27.0860  -25.7550   29.9860 O.2    28  HIS28      -0.2715
     22  CB        25.7780  -28.4310   30.6590 C.3    28  HIS28       0.0785
     23  CG        26.5940  -28.6330   31.8920 C.ar   28  HIS28       0.0821
     24  ND1       26.0580  -29.1230   33.0640 N.ar   28  HIS28      -0.2267
     25  CD2       27.8820  -28.2920   32.1680 C.ar   28  HIS28       0.1154
     26  CE1       26.9810  -29.0670   34.0120 C.ar   28  HIS28       0.1986
     27  NE2       28.0920  -28.5610   33.4910 N.ar   28  HIS28      -0.2212
     28  N         26.2360  -25.3600   32.0100 N.am   29  THR29      -0.1937
     29  CA        27.2490  -24.3710   32.2870 C.3    29  THR29       0.2028
     30  C         27.9020  -24.5990   33.6420 C.2    29  THR29       0.2642
     31  O         29.0750  -24.2820   33.8070 O.2    29  THR29      -0.2714
     32  CB        26.6610  -22.9180   32.2250 C.3    29  THR29       0.1808
     33  OG1       27.7130  -21.9720   32.3990 O.3    29  THR29      -0.2208
     34  CG2       25.6010  -22.6700   33.3550 C.3    29  THR29       0.0379
     35  N         27.1690  -25.2310   34.5750 N.am   30  CYS30      -0.1967
     36  CA        27.6910  -25.4310   35.9140 C.3    30  CYS30       0.1712
     37  C         27.0460  -26.6260   36.5880 C.2    30  CYS30       0.2296
     38  O         26.0120  -27.0920   36.1270 O.2    30  CYS30      -0.2864
     39  CB        27.3520  -24.2170   36.7920 C.3    30  CYS30       0.0983
     40  SG        28.5310  -22.8270   36.5760 S.3    30  CYS30      -0.0798
     41  N         29.4150  -17.4250   41.2410 N.3    45  HIS45      -0.1226
     42  CA        29.8650  -16.9510   39.9240 C.3    45  HIS45       0.1752
     43  C         29.1490  -17.6060   38.7580 C.2    45  HIS45       0.2596
     44  O         29.3120  -17.1870   37.6250 O.2    45  HIS45      -0.2718
     45  CB        31.3840  -17.0830   39.6820 C.3    45  HIS45       0.0759
     46  CG        31.8760  -18.4970   39.5010 C.ar   45  HIS45       0.0818
     47  ND1       32.3220  -19.2770   40.5540 N.ar   45  HIS45      -0.2268
     48  CD2       31.9670  -19.2790   38.3880 C.ar   45  HIS45       0.1154
     49  CE1       32.6620  -20.4820   40.0990 C.ar   45  HIS45       0.1986
     50  NE2       32.4530  -20.5100   38.7930 N.ar   45  HIS45      -0.2212
     51  N         28.4000  -18.6570   39.0230 N.am   46  CYS46      -0.1970
     52  CA        27.6660  -19.2980   37.9910 C.3    46  CYS46       0.1712
     53  C         26.3770  -18.5650   37.7040 C.2    46  CYS46       0.2296
     54  O         25.8650  -18.7280   36.6150 O.2    46  CYS46      -0.2864
     55  CB        27.2320  -20.6980   38.4110 C.3    46  CYS46       0.0983
     56  SG        28.5590  -21.9390   38.4180 S.3    46  CYS46      -0.0798
     57  N         25.1190  -13.3000   36.7020 N.3    49  ARG49      -0.1245
     58  CA        24.7260  -12.5000   35.5820 C.3    49  ARG49       0.1563
     59  C         23.2380  -12.3900   35.2910 C.2    49  ARG49       0.2260
     60  O         22.3910  -12.4100   36.1970 O.2    49  ARG49      -0.2867
     61  CB        25.4220  -13.0440   34.3390 C.3    49  ARG49       0.0307
     62  CG        26.8990  -13.2540   34.4880 C.3    49  ARG49       0.0489
     63  CD        27.6410  -12.0790   33.9140 C.3    49  ARG49       0.2205
     64  NE        28.8200  -12.5090   33.1780 N.pl3  49  ARG49      -0.0865
     65  CZ        28.7980  -13.2880   32.0980 C.cat  49  ARG49       0.5346
     66  NH1       27.6450  -13.7320   31.6160 N.pl3  49  ARG49       0.1354
     67  NH2       29.9370  -13.6180   31.4960 N.pl3  49  ARG49       0.1354
     68  N         21.6320  -14.5110   32.8340 N.3    51  LEU51      -0.1245
     69  CA        21.2290  -15.6630   32.0260 C.3    51  LEU51       0.1561
     70  C         19.9010  -16.2510   32.5110 C.2    51  LEU51       0.2260
     71  O         19.4760  -15.9670   33.5970 O.2    51  LEU51      -0.2867
     72  CB        22.3300  -16.7380   32.1020 C.3    51  LEU51       0.0270
     73  CG        23.4660  -16.8920   31.0950 C.3    51  LEU51       0.0019
     74  CD1       23.8560  -15.6290   30.4130 C.3    51  LEU51       0.0001
     75  CD2       24.6300  -17.5130   31.8230 C.3    51  LEU51       0.0001
     76  N         36.9610  -13.4730   43.2340 N.3    88  VAL88      -0.1245
     77  CA        36.4490  -14.7700   43.6900 C.3    88  VAL88       0.1561
     78  C         37.3250  -15.2900   44.8470 C.2    88  VAL88       0.2260
     79  O         36.8740  -16.0980   45.6760 O.2    88  VAL88      -0.2867
     80  CB        36.4980  -15.8000   42.5440 C.3    88  VAL88       0.0252
     81  CG1       37.9400  -15.9970   42.1000 C.3    88  VAL88       0.0019
     82  CG2       36.0150  -17.1350   43.0330 C.3    88  VAL88       0.0019
     83  N         35.0680  -29.9360   31.7340 N.3   134  LEU134     -0.1245
     84  CA        36.0770  -30.3880   30.7640 C.3   134  LEU134      0.1561
     85  C         36.8570  -31.5760   31.2230 C.2   134  LEU134      0.2260
     86  O         37.2510  -31.6830   32.4060 O.2   134  LEU134     -0.2867
     87  CB        37.0950  -29.2940   30.4090 C.3   134  LEU134      0.0270
     88  CG        36.5670  -27.9010   30.0580 C.3   134  LEU134      0.0019
     89  CD1       37.8150  -27.0130   29.4970 C.3   134  LEU134      0.0001
     90  CD2       35.4430  -27.9830   29.0290 C.3   134  LEU134      0.0001
     91  N         39.8290  -28.3230   26.9170 N.3   139  GLY139     -0.1210
     92  CA        39.1750  -29.4000   26.1950 C.3   139  GLY139      0.1956
     93  C         37.6510  -29.2210   26.0870 C.2   139  GLY139      0.2612
     94  O         37.1320  -28.1300   25.9820 O.2   139  GLY139     -0.2717
     95  N         36.9270  -30.3150   26.1460 N.am  140  GLN140     -0.1965
     96  CA        35.4740  -30.2630   25.9960 C.3   140  GLN140      0.1733
     97  C         34.7890  -30.9190   27.1860 C.2   140  GLN140      0.2616
     98  O         35.3900  -31.7360   27.9030 O.2   140  GLN140     -0.2715
     99  CB        35.0610  -30.9910   24.7110 C.3   140  GLN140      0.0408
    100  CG        35.4610  -32.4650   24.7660 C.3   140  GLN140      0.0908
    101  CD        34.9870  -33.2960   23.5750 C.2   140  GLN140      0.2608
    102  OE1       34.8010  -32.7940   22.4510 O.2   140  GLN140     -0.2717
    103  NE2       34.8170  -34.5950   23.8170 N.am  140  GLN140     -0.0878
    104  N         33.5390  -30.5180   27.4050 N.am  141  LEU141     -0.1977
    105  CA        32.6970  -31.0980   28.4750 C.3   141  LEU141      0.1596
    106  C         32.5640  -32.6060   28.2730 C.2   141  LEU141      0.2287
    107  O         32.6200  -33.0960   27.1230 O.2   141  LEU141     -0.2864
    108  CB        31.2910  -30.5290   28.3850 C.3   141  LEU141      0.0297
    109  CG        30.9800  -29.0690   28.6870 C.3   141  LEU141      0.0022
    110  CD1       29.4670  -28.8060   28.4040 C.3   141  LEU141      0.0001
    111  CD2       31.3370  -28.7560   30.1970 C.3   141  LEU141      0.0001
    112  N         39.0360  -30.4930   39.0230 N.3   183  GLY183     -0.1210
    113  CA        37.8090  -29.9880   38.4390 C.3   183  GLY183      0.1956
    114  C         38.2350  -29.2350   37.1590 C.2   183  GLY183      0.2612
    115  O         39.4100  -28.9170   37.0030 O.2   183  GLY183     -0.2717
    116  N         37.3340  -28.9690   36.2320 N.am  184  CYS184     -0.1956
    117  CA        37.6730  -28.1700   35.0270 C.3   184  CYS184      0.1843
    118  C         36.4180  -27.4030   34.5440 C.2   184  CYS184      0.2625
    119  O         35.3300  -27.5940   35.0960 O.2   184  CYS184     -0.2714
    120  CB        38.3280  -29.0420   33.9350 C.3   184  CYS184      0.0997
    121  SG        39.4620  -28.0950   32.8340 S.3   184  CYS184     -0.0797
    122  N         36.5110  -26.5330   33.5400 N.am  185  GLN185     -0.1963
    123  CA        35.3330  -25.7130   33.2220 C.3   185  GLN185      0.1733
    124  C         34.0500  -26.4990   32.9970 C.2   185  GLN185      0.2617
    125  O         34.0490  -27.4470   32.2080 O.2   185  GLN185     -0.2715
    126  CB        35.5910  -24.7870   32.0400 C.3   185  GLN185      0.0408
    127  CG        36.4230  -23.5280   32.4220 C.3   185  GLN185      0.0908
    128  CD        37.9330  -23.8100   32.4030 C.2   185  GLN185      0.2608
    129  OE1       38.3850  -24.9580   32.3530 O.2   185  GLN185     -0.2717
    130  NE2       38.7080  -22.7570   32.4360 N.am  185  GLN185     -0.0878
    131  N         32.9640  -26.0260   33.6370 N.am  186  GLY186     -0.1940
    132  CA        31.6730  -26.7250   33.6200 C.3   186  GLY186      0.2014
    133  C         31.4340  -27.4800   34.9500 C.2   186  GLY186      0.2639
    134  O         30.3140  -27.9330   35.1820 O.2   186  GLY186     -0.2714
    135  N         32.4550  -27.6670   35.8010 N.am  187  ASP187     -0.1957
    136  CA        32.2540  -28.2970   37.1290 C.3   187  ASP187      0.1840
    137  C         31.8840  -27.3080   38.2550 C.2   187  ASP187      0.2622
    138  O         31.4410  -27.7410   39.3290 O.2   187  ASP187     -0.2715
    139  CB        33.4880  -29.0640   37.5860 C.3   187  ASP187      0.1450
    140  CG        33.7600  -30.2810   36.7090 C.2   187  ASP187      0.3671
    141  OD1       32.7740  -30.8980   36.2910 O.co2 187  ASP187     -0.2456
    142  OD2       34.9580  -30.5830   36.4720 O.co2 187  ASP187     -0.2456
    143  N         32.1150  -26.0050   38.0370 N.am  188  SER188     -0.1950
    144  CA        31.7620  -24.9580   39.0140 C.3   188  SER188      0.1924
    145  C         30.4010  -25.1680   39.6420 C.2   188  SER188      0.2314
    146  O         29.4830  -25.5950   38.9530 O.2   188  SER188     -0.2863
    147  CB        31.7120  -23.5780   38.3570 C.3   188  SER188      0.2116
    148  OG        33.0220  -22.9470   38.3490 O.3   188  SER188     -0.2180
    149  N         32.2680  -26.3390   44.0420 N.3   206  THR206     -0.1203
    150  CA        33.4140  -26.1190   43.1420 C.3   206  THR206      0.1994
    151  C         33.5440  -24.6460   42.7280 C.2   206  THR206      0.2619
    152  O         32.5890  -24.0240   42.2710 O.2   206  THR206     -0.2717
    153  CB        33.2810  -27.0280   41.9270 C.3   206  THR206      0.1784
    154  OG1       33.2230  -28.4050   42.3750 O.3   206  THR206     -0.2211
    155  CG2       34.4210  -26.8120   40.9580 C.3   206  THR206      0.0376
    156  N         34.7230  -24.0800   42.9610 N.am  207  SER207     -0.1937
    157  CA        34.9160  -22.6810   42.6490 C.3   207  SER207      0.2055
    158  C         36.0110  -22.4190   41.5990 C.2   207  SER207      0.2643
    159  O         35.7140  -21.9390   40.4970 O.2   207  SER207     -0.2714
    160  CB        35.2300  -21.8820   43.9570 C.3   207  SER207      0.2130
    161  OG        35.2470  -20.4580   43.6980 O.3   207  SER207     -0.2179
    162  N         37.2800  -22.6980   41.9310 N.am  208  PHE208     -0.1959
    163  CA        38.2750  -22.3730   40.9400 C.3   208  PHE208      0.1771
    164  C         39.5360  -23.2450   40.8850 C.2   208  PHE208      0.2619
    165  O         39.7780  -24.0880   41.7680 O.2   208  PHE208     -0.2715
    166  CB        38.6920  -20.8770   41.1100 C.3   208  PHE208      0.0574
    167  CG        39.3540  -20.5590   42.4550 C.ar  208  PHE208     -0.0200
    168  CD1       38.5880  -20.1110   43.5460 C.ar  208  PHE208     -0.0042
    169  CD2       40.7390  -20.7170   42.6190 C.ar  208  PHE208     -0.0042
    170  CE1       39.1790  -19.8020   44.7800 C.ar  208  PHE208     -0.0003
    171  CE2       41.3610  -20.4160   43.8760 C.ar  208  PHE208     -0.0003
    172  CZ        40.5820  -19.9610   44.9430 C.ar  208  PHE208     -0.0000
    173  N         40.3480  -22.9880   39.8520 N.am  209  VAL209     -0.1963
    174  CA        41.6220  -23.6750   39.6530 C.3   209  VAL209      0.1727
    175  C         42.6810  -22.6450   39.2820 C.2   209  VAL209      0.2617
    176  O         42.4160  -21.4500   39.2300 O.2   209  VAL209     -0.2715
    177  CB        41.6120  -24.7830   38.4950 C.3   209  VAL209      0.0290
    178  CG1       40.7220  -25.9520   38.9070 C.3   209  VAL209      0.0023
    179  CG2       41.1680  -24.1970   37.1130 C.3   209  VAL209      0.0023
    180  N         43.8850  -23.1380   39.0050 N.am  210  SER210     -0.1936
    181  CA        45.0250  -22.2870   38.6310 C.3   210  SER210      0.2055
    182  C         44.8050  -21.6420   37.2630 C.2   210  SER210      0.2642
    183  O         44.1120  -22.2020   36.4290 O.2   210  SER210     -0.2714
    184  CB        46.3110  -23.1340   38.5790 C.3   210  SER210      0.2130
    185  OG        47.4200  -22.3720   38.0820 O.3   210  SER210     -0.2179
    186  N         45.3950  -20.4600   37.0390 N.am  211  ARG211     -0.1977
    187  CA        45.2800  -19.7970   35.7260 C.3   211  ARG211      0.1597
    188  C         46.1270  -20.6430   34.8110 C.2   211  ARG211      0.2287
    189  O         46.0440  -20.5550   33.5900 O.2   211  ARG211     -0.2864
    190  CB        45.9200  -18.3900   35.7510 C.3   211  ARG211      0.0334
    191  CG        45.3930  -17.4620   36.8000 C.3   211  ARG211      0.0492
    192  CD        44.2770  -16.5110   36.2810 C.3   211  ARG211      0.2205
    193  NE        44.0110  -15.3890   37.1920 N.pl3 211  ARG211     -0.0865
    194  CZ        44.9350  -14.5190   37.6190 C.cat 211  ARG211      0.5346
    195  NH1       46.2080  -14.6350   37.2210 N.pl3 211  ARG211      0.1354
    196  NH2       44.5910  -13.5240   38.4400 N.pl3 211  ARG211      0.1354
    197  N         42.1490  -28.1340   43.2180 N.3   221  THR221     -0.1218
    198  CA        40.9030  -27.4320   42.8890 C.3   221  THR221      0.1862
    199  C         40.4230  -26.8280   44.2270 C.2   221  THR221      0.2287
    200  O         40.5870  -27.4440   45.2700 O.2   221  THR221     -0.2866
    201  CB        39.8870  -28.4520   42.3580 C.3   221  THR221      0.1770
    202  OG1       40.4410  -29.1060   41.1880 O.3   221  THR221     -0.2211
    203  CG2       38.5690  -27.7720   42.0240 C.3   221  THR221      0.0375
@<TRIPOS>BOND
     1   102   101    2
     2   101   103   am
     3   101   100    1
     4    99   100    1
     5    99    96    1
     6    94    93    2
     7    96    95    1
     8    96    97    1
     9    93    95   am
    10    93    92    1
    11    92    91    1
    12    17    14    1
    13   107   106    2
    14    12    11    1
    15    97   104   am
    16    97    98    2
    17   104   105    1
    18    13    14    1
    19    14    15    1
    20    10    11   ar
    21    10     8   ar
    22    11     9   ar
    23     4     3    2
    24   106   105    1
    25   108   105    1
    26   108   109    1
    27   110   109    1
    28     8     6   ar
    29   109   111    1
    30    15    18   am
    31    15    16    2
    32    90    88    1
    33     9     7   ar
    34     3     2    1
    35    18    19    1
    36    89    88    1
    37     6     7   ar
    38     6     5    1
    39    21    20    2
    40    88    87    1
    41    87    84    1
    42    74    73    1
    43     2     5    1
    44     2     1    1
    45    19    22    1
    46    19    20    1
    47    22    23    1
    48    84    85    1
    49    84    83    1
    50    20    28   am
    51    73    75    1
    52    73    72    1
    53    85    86    2
    54    67    65    1
    55    66    65    1
    56    23    25   ar
    57    23    24   ar
    58    28    29    1
    59    69    72    1
    60    69    70    1
    61    69    68    1
    62   126   127    1
    63   126   123    1
    64    65    64    2
    65    25    27   ar
    66   125   124    2
    67    32    29    1
    68    32    33    1
    69    32    34    1
    70    29    30    1
    71   129   128    2
    72   128   127    1
    73   128   130   am
    74    70    71    2
    75   121   120    1
    76   124   123    1
    77   124   131   am
    78    24    26   ar
    79    64    63    1
    80   123   122    1
    81    27    26   ar
    82   122   118   am
    83   189   188    2
    84   132   131    1
    85   132   133    1
    86    30    31    2
    87    30    35   am
    88    63    62    1
    89   120   117    1
    90    61    62    1
    91    61    58    1
    92   118   117    1
    93   118   119    2
    94    35    36    1
    95   188   187    1
    96   133   134    2
    97   133   135   am
    98   117   116    1
    99    59    58    1
   100    59    60    2
   101    58    57    1
   102   187   190    1
   103   187   186    1
   104   190   191    1
   105   135   136    1
   106    36    37    1
   107    36    39    1
   108    38    37    2
   109   116   114   am
   110   192   191    1
   111   192   193    1
   112   141   140   ar
   113   183   182    2
   114   142   140   ar
   115    40    39    1
   116    40    56    1
   117    54    53    2
   118   140   139    1
   119   115   114    2
   120   186   182   am
   121   179   177    1
   122   136   139    1
   123   136   137    1
   124   114   113    1
   125   193   194    2
   126   195   194    1
   127   182   181    1
   128   194   196    1
   129    44    43    2
   130    53    52    1
   131    52    55    1
   132    52    51    1
   133   143   137   am
   134   143   144    1
   135   185   184    1
   136   137   138    2
   137   148   147    1
   138   147   144    1
   139    48    50   ar
   140    48    46   ar
   141    55    56    1
   142   113   112    1
   143   177   178    1
   144   177   174    1
   145   184   181    1
   146   181   180    1
   147    43    51   am
   148    43    42    1
   149    50    49   ar
   150   146   145    2
   151   180   175   am
   152   144   145    1
   153   176   175    2
   154   175   174    1
   155    46    45    1
   156    46    47   ar
   157   174   173    1
   158    45    42    1
   159   173   164   am
   160    42    41    1
   161    49    47   ar
   162   159   158    2
   163   164   163    1
   164   164   165    2
   165   163   166    1
   166   163   162    1
   167   155   153    1
   168   166   167    1
   169   202   201    1
   170   158   162   am
   171   158   157    1
   172   153   154    1
   173   153   150    1
   174   203   201    1
   175    81    80    1
   176   152   151    2
   177   201   198    1
   178   167   169   ar
   179   167   168   ar
   180    80    82    1
   181    80    77    1
   182   169   171   ar
   183   157   156    1
   184   157   160    1
   185   151   156   am
   186   151   150    1
   187   198   197    1
   188   198   199    1
   189   150   149    1
   190    76    77    1
   191   168   170   ar
   192    77    78    1
   193   161   160    1
   194   171   172   ar
   195   199   200    2
   196   170   172   ar
   197    78    79    2
