@<TRIPOS>MOLECULE
tmp/2cv4F00.pdb
 112 111 0 0 0
SMALL
GASTEIGER

@<TRIPOS>ATOM
      1  N         36.6390  -58.5650    7.2030 N.3    19  HIS19      -0.1241
      2  CA        35.9440  -59.7580    7.6810 C.3    19  HIS19       0.1621
      3  C         34.4690  -59.5560    8.0320 C.2    19  HIS19       0.2264
      4  O         33.8180  -60.4970    8.4560 O.2    19  HIS19      -0.2867
      5  CB        36.6510  -60.3280    8.9380 C.3    19  HIS19       0.0745
      6  CG        38.0820  -60.7140    8.7220 C.ar   19  HIS19       0.0817
      7  ND1       38.8880  -61.1850    9.7470 N.ar   19  HIS19      -0.2268
      8  CD2       38.8560  -60.7150    7.6080 C.ar   19  HIS19       0.1154
      9  CE1       40.0890  -61.4650    9.2620 C.ar   19  HIS19       0.1986
     10  NE2       40.0970  -61.1940    7.9750 N.ar   19  HIS19      -0.2212
     11  N         33.5220  -55.9170   20.4260 N.3    27  HIS27      -0.1226
     12  CA        33.9620  -57.1410   19.8390 C.3    27  HIS27       0.1752
     13  C         35.1370  -57.8890   20.4870 C.2    27  HIS27       0.2596
     14  O         35.1700  -59.1210   20.4830 O.2    27  HIS27      -0.2718
     15  CB        34.2590  -56.8720   18.3780 C.3    27  HIS27       0.0759
     16  CG        34.4870  -58.1120   17.5940 C.ar   27  HIS27       0.0818
     17  ND1       35.7340  -58.6650   17.4370 N.ar   27  HIS27      -0.2268
     18  CD2       33.6100  -58.9840   17.0310 C.ar   27  HIS27       0.1154
     19  CE1       35.6240  -59.8280   16.8180 C.ar   27  HIS27       0.1986
     20  NE2       34.3420  -60.0400   16.5660 N.ar   27  HIS27      -0.2212
     21  N         36.1140  -57.1700   21.0380 N.am   28  TYR28      -0.1976
     22  CA        37.2520  -57.8490   21.6470 C.3    28  TYR28       0.1639
     23  C         37.0630  -57.9480   23.1180 C.2    28  TYR28       0.2290
     24  O         37.4660  -58.9200   23.7490 O.2    28  TYR28      -0.2864
     25  CB        38.4960  -57.0960   21.3000 C.3    28  TYR28       0.0560
     26  CG        38.6810  -57.1250   19.8350 C.ar   28  TYR28      -0.0198
     27  CD1       39.1710  -58.2680   19.2220 C.ar   28  TYR28      -0.0009
     28  CD2       38.3740  -56.0050   19.0450 C.ar   28  TYR28      -0.0009
     29  CE1       39.3610  -58.3220   17.8670 C.ar   28  TYR28       0.0417
     30  CE2       38.5590  -56.0390   17.6550 C.ar   28  TYR28       0.0417
     31  CZ        39.0550  -57.2170   17.0830 C.ar   28  TYR28       0.1957
     32  OH        39.2110  -57.3570   15.7320 O.3    28  TYR28      -0.2866
     33  N         35.2230  -60.8990   24.3150 N.3    31  GLN31      -0.1245
     34  CA        35.9300  -62.1770   24.2200 C.3    31  GLN31       0.1566
     35  C         37.0750  -62.1270   25.1970 C.2    31  GLN31       0.2260
     36  O         38.0070  -62.9420   25.1070 O.2    31  GLN31      -0.2867
     37  CB        36.5990  -62.4120   22.8660 C.3    31  GLN31       0.0367
     38  CG        35.7520  -62.3090   21.6670 C.3    31  GLN31       0.0905
     39  CD        36.5710  -62.4260   20.4340 C.2    31  GLN31       0.2608
     40  OE1       37.3180  -63.3900   20.2550 O.2    31  GLN31      -0.2717
     41  NE2       36.4660  -61.4230   19.5720 N.am   31  GLN31      -0.0878
     42  N         39.4770  -60.0830   25.2340 N.3    33  LYS33      -0.1245
     43  CA        40.7640  -59.9240   24.5920 C.3    33  LYS33       0.1561
     44  C         41.1790  -58.4700   24.4490 C.2    33  LYS33       0.2260
     45  O         40.3530  -57.5790   24.3650 O.2    33  LYS33      -0.2867
     46  CB        40.7560  -60.5700   23.1970 C.3    33  LYS33       0.0271
     47  CG        40.3400  -62.0470   23.1200 C.3    33  LYS33       0.0035
     48  CD        41.5480  -62.9760   23.0250 C.3    33  LYS33       0.0206
     49  CE        41.6660  -63.6250   21.6320 C.3    33  LYS33       0.1093
     50  NZ        42.9990  -63.3650   21.0060 N.3    33  LYS33      -0.1314
     51  N         51.7440  -62.7120   14.6030 N.3    58  TYR58      -0.1241
     52  CA        50.3700  -63.0410   14.9320 C.3    58  TYR58       0.1605
     53  C         50.2190  -64.0320   16.1270 C.2    58  TYR58       0.2264
     54  O         49.5040  -63.7260   17.0750 O.2    58  TYR58      -0.2867
     55  CB        49.6830  -63.5870   13.6660 C.3    58  TYR58       0.0534
     56  CG        48.2190  -63.8110   13.8590 C.ar   58  TYR58      -0.0201
     57  CD1       47.6880  -65.0890   14.1030 C.ar   58  TYR58      -0.0009
     58  CD2       47.3650  -62.7330   13.8860 C.ar   58  TYR58      -0.0009
     59  CE1       46.3560  -65.2530   14.3800 C.ar   58  TYR58       0.0417
     60  CE2       46.0560  -62.8930   14.1610 C.ar   58  TYR58       0.0417
     61  CZ        45.5610  -64.1500   14.3980 C.ar   58  TYR58       0.1957
     62  OH        44.2240  -64.3040   14.6630 O.3    58  TYR58      -0.2866
     63  N         48.6530  -63.4650   19.7620 N.3    62  GLN62      -0.1245
     64  CA        47.5400  -64.3010   20.1940 C.3    62  GLN62       0.1566
     65  C         47.8190  -64.9800   21.5110 C.2    62  GLN62       0.2260
     66  O         46.9340  -65.0840   22.3570 O.2    62  GLN62      -0.2867
     67  CB        47.2250  -65.3240   19.1170 C.3    62  GLN62       0.0367
     68  CG        46.4750  -64.7570   17.9220 C.3    62  GLN62       0.0905
     69  CD        45.0450  -64.4310   18.3010 C.2    62  GLN62       0.2608
     70  OE1       44.4090  -65.2100   18.9890 O.2    62  GLN62      -0.2717
     71  NE2       44.5310  -63.2950   17.8530 N.am   62  GLN62      -0.0878
     72  N         44.5090  -59.3350   19.9500 N.3    67  ASP67      -0.1225
     73  CA        44.0510  -59.3940   18.5720 C.3    67  ASP67       0.1805
     74  C         44.5010  -58.1690   17.8060 C.2    67  ASP67       0.2597
     75  O         44.6520  -57.0680   18.3520 O.2    67  ASP67      -0.2718
     76  CB        42.5310  -59.5020   18.4780 C.3    67  ASP67       0.1424
     77  CG        42.0420  -60.9240   18.5700 C.2    67  ASP67       0.3668
     78  OD1       42.6830  -61.8090   17.9880 O.co2  67  ASP67      -0.2456
     79  OD2       41.0040  -61.1480   19.1950 O.co2  67  ASP67      -0.2456
     80  N         44.6960  -58.3780   16.5240 N.am   68  LEU68      -0.1979
     81  CA        45.1520  -57.3420   15.6430 C.3    68  LEU68       0.1596
     82  C         44.0870  -56.9490   14.6910 C.2    68  LEU68       0.2287
     83  O         43.3470  -57.7810   14.2040 O.2    68  LEU68      -0.2864
     84  CB        46.3470  -57.8280   14.8390 C.3    68  LEU68       0.0297
     85  CG        47.5810  -58.2420   15.6250 C.3    68  LEU68       0.0022
     86  CD1       48.5840  -58.8450   14.6330 C.3    68  LEU68       0.0001
     87  CD2       48.1720  -57.0590   16.3920 C.3    68  LEU68       0.0001
     88  N         46.3170  -62.6190    8.3980 N.3    95  PRO95      -0.2102
     89  CA        45.1730  -63.1960    9.1090 C.3    95  PRO95       0.1504
     90  C         44.2300  -62.2750    9.8700 C.2    95  PRO95       0.2576
     91  O         43.1730  -62.7010   10.3230 O.2    95  PRO95      -0.2718
     92  CB        45.8370  -64.1830   10.0440 C.3    95  PRO95       0.0282
     93  CG        47.0560  -63.3940   10.4990 C.3    95  PRO95       0.0208
     94  CD        47.5480  -62.7040    9.2280 C.3    95  PRO95       0.0893
     95  N         44.5720  -61.0150   10.0090 N.am   96  PHE96      -0.1963
     96  CA        43.6880  -60.1750   10.7830 C.3    96  PHE96       0.1756
     97  C         42.9380  -59.2750    9.8740 C.2    96  PHE96       0.2461
     98  O         43.3650  -59.0030    8.7650 O.2    96  PHE96      -0.2730
     99  CB        44.5030  -59.3400   11.7820 C.3    96  PHE96       0.0574
    100  CG        45.7490  -58.7220   11.1810 C.ar   96  PHE96      -0.0200
    101  CD1       46.9600  -59.3750   11.2550 C.ar   96  PHE96      -0.0042
    102  CD2       45.6870  -57.5160   10.4860 C.ar   96  PHE96      -0.0042
    103  CE1       48.1100  -58.8380   10.6590 C.ar   96  PHE96      -0.0003
    104  CE2       46.8250  -56.9720    9.8750 C.ar   96  PHE96      -0.0003
    105  CZ        48.0310  -57.6380    9.9670 C.ar   96  PHE96      -0.0000
    106  N         41.7970  -58.8010   10.3340 N.am   97  PRO97      -0.2727
    107  CA        40.9100  -57.9040    9.6380 C.3    97  PRO97       0.1402
    108  C         41.4900  -56.4980    9.5090 C.2    97  PRO97       0.2269
    109  O         42.3290  -56.0780   10.3020 O.2    97  PRO97      -0.2865
    110  CB        39.6710  -57.9070   10.5170 C.3    97  PRO97       0.0296
    111  CG        40.2540  -58.0980   11.8890 C.3    97  PRO97       0.0237
    112  CD        41.2150  -59.2220   11.6020 C.3    97  PRO97       0.0939
@<TRIPOS>BOND
     1     1     2    1
     2     8    10   ar
     3     8     6   ar
     4     2     3    1
     5     2     5    1
     6    10     9   ar
     7     3     4    2
     8    88    89    1
     9    88    94    1
    10     6     5    1
    11     6     7   ar
    12    98    97    2
    13    89    90    1
    14    89    92    1
    15    94    93    1
    16     9     7   ar
    17   108   107    1
    18   108   109    2
    19   107   106    1
    20   107   110    1
    21    90    95   am
    22    90    91    2
    23    97   106   am
    24    97    96    1
    25   104   105   ar
    26   104   102   ar
    27   105   103   ar
    28    95    96    1
    29    92    93    1
    30   106   112    1
    31   102   100   ar
    32   110   111    1
    33   103   101   ar
    34    96    99    1
    35   100   101   ar
    36   100    99    1
    37   112   111    1
    38    55    56    1
    39    55    52    1
    40    56    58   ar
    41    56    57   ar
    42    58    60   ar
    43    57    59   ar
    44    60    61   ar
    45    83    82    2
    46    59    61   ar
    47    61    62    1
    48    51    52    1
    49    86    85    1
    50    82    81    1
    51    84    85    1
    52    84    81    1
    53    52    53    1
    54    85    87    1
    55    81    80    1
    56    32    31    1
    57    53    54    2
    58    80    74   am
    59    20    19   ar
    60    20    18   ar
    61    19    17   ar
    62    18    16   ar
    63    31    30   ar
    64    31    29   ar
    65    17    16   ar
    66    16    15    1
    67    30    28   ar
    68    74    75    2
    69    74    73    1
    70    71    69   am
    71    29    27   ar
    72    68    69    1
    73    68    67    1
    74    78    77   ar
    75    69    70    2
    76    15    12    1
    77    76    77    1
    78    76    73    1
    79    77    79   ar
    80    73    72    1
    81    28    26   ar
    82    67    64    1
    83    27    26   ar
    84    41    39   am
    85    63    64    1
    86    26    25    1
    87    12    11    1
    88    12    13    1
    89    64    65    1
    90    40    39    2
    91    39    38    1
    92    14    13    2
    93    13    21   am
    94    50    49    1
    95    21    22    1
    96    25    22    1
    97    65    66    2
    98    49    48    1
    99    22    23    1
   100    38    37    1
   101    37    34    1
   102    48    47    1
   103    23    24    2
   104    47    46    1
   105    46    43    1
   106    34    33    1
   107    34    35    1
   108    45    44    2
   109    44    43    1
   110    43    42    1
   111    36    35    2
