@<TRIPOS>MOLECULE
tmp/2cvdA01.pdb
 148 142 0 0 0
SMALL
GASTEIGER

@<TRIPOS>ATOM
      1  N          5.2200   25.3260   34.3940 N.3     7  TYR7       -0.1241
      2  CA         4.9260   23.9180   34.6270 C.3     7  TYR7        0.1605
      3  C          4.0900   23.8410   35.9000 C.2     7  TYR7        0.2264
      4  O          3.7410   24.8720   36.4760 O.2     7  TYR7       -0.2867
      5  CB         6.2330   23.1330   34.7970 C.3     7  TYR7        0.0534
      6  CG         6.0710   21.6230   34.7820 C.ar    7  TYR7       -0.0201
      7  CD1        5.5320   20.9700   33.6730 C.ar    7  TYR7       -0.0009
      8  CD2        6.4630   20.8480   35.8760 C.ar    7  TYR7       -0.0009
      9  CE1        5.3850   19.5840   33.6510 C.ar    7  TYR7        0.0417
     10  CE2        6.3210   19.4600   35.8610 C.ar    7  TYR7        0.0417
     11  CZ         5.7830   18.8360   34.7470 C.ar    7  TYR7        0.1957
     12  OH         5.6570   17.4680   34.7330 O.3     7  TYR7       -0.2866
     13  N          5.6730   20.6680   40.5280 N.3    10  MET10      -0.1245
     14  CA         6.2300   19.3260   40.6460 C.3    10  MET10       0.1570
     15  C          7.5890   19.3570   39.9760 C.2    10  MET10       0.2261
     16  O          7.8970   20.2900   39.2330 O.2    10  MET10      -0.2867
     17  CB         5.3800   18.2950   39.8970 C.3    10  MET10       0.0387
     18  CG         3.9390   18.1530   40.3370 C.3    10  MET10       0.0595
     19  SD         3.1460   16.8470   39.3660 S.3    10  MET10      -0.1393
     20  CE         2.8260   17.6960   37.8700 C.3    10  MET10       0.0692
     21  N          8.7360   16.6620   38.0410 N.3    12  GLY12      -0.1210
     22  CA         8.3020   16.1430   36.7560 C.3    12  GLY12       0.1956
     23  C          9.1820   16.4020   35.5500 C.2    12  GLY12       0.2611
     24  O         10.4100   16.2900   35.6190 O.2    12  GLY12      -0.2717
     25  N          8.5380   16.7580   34.4400 N.am   13  ARG13      -0.1979
     26  CA         9.2300   17.0160   33.1820 C.3    13  ARG13       0.1597
     27  C          9.9600   18.3470   33.0860 C.2    13  ARG13       0.2287
     28  O         10.7290   18.5620   32.1520 O.2    13  ARG13      -0.2864
     29  CB         8.2470   16.8800   32.0150 C.3    13  ARG13       0.0334
     30  CG         7.8420   15.4420   31.7590 C.3    13  ARG13       0.0492
     31  CD         6.8620   15.2890   30.6110 C.3    13  ARG13       0.2205
     32  NE         6.5960   13.8730   30.3590 N.pl3  13  ARG13      -0.0865
     33  CZ         7.4410   13.0430   29.7550 C.cat  13  ARG13       0.5346
     34  NH1        8.6160   13.4710   29.3150 N.pl3  13  ARG13       0.1354
     35  NH2        7.1210   11.7630   29.6230 N.pl3  13  ARG13       0.1354
     36  N          9.8880    6.3470   31.0720 N.3    98  MET98      -0.1245
     37  CA         9.0400    7.1930   31.9100 C.3    98  MET98       0.1570
     38  C          7.7010    7.4530   31.2220 C.2    98  MET98       0.2261
     39  O          6.6520    7.4580   31.8660 O.2    98  MET98      -0.2867
     40  CB         9.7160    8.5410   32.1960 C.3    98  MET98       0.0387
     41  CG        11.0580    8.4520   32.9050 C.3    98  MET98       0.0595
     42  SD        11.0110    7.5580   34.4720 S.3    98  MET98      -0.1393
     43  CE        10.3900    8.8220   35.5560 C.3    98  MET98       0.0692
     44  N          4.3880    4.9910   31.4510 N.3   101  PHE101     -0.1241
     45  CA         3.4170    4.9800   32.5400 C.3   101  PHE101      0.1605
     46  C          2.1390    5.7050   32.1190 C.2   101  PHE101      0.2264
     47  O          2.1550    6.9000   31.8200 O.2   101  PHE101     -0.2867
     48  CB         4.0250    5.6040   33.7980 C.3   101  PHE101      0.0534
     49  CG         5.0860    4.7500   34.4420 C.ar  101  PHE101     -0.0203
     50  CD1        6.3330    4.5870   33.8390 C.ar  101  PHE101     -0.0042
     51  CD2        4.8320    4.0880   35.6380 C.ar  101  PHE101     -0.0042
     52  CE1        7.3090    3.7770   34.4210 C.ar  101  PHE101     -0.0003
     53  CE2        5.7980    3.2770   36.2280 C.ar  101  PHE101     -0.0003
     54  CZ         7.0400    3.1190   35.6170 C.ar  101  PHE101     -0.0000
     55  N         -0.4900    7.5600   32.9160 N.3   103  TRP103     -0.1241
     56  CA        -1.0970    8.5020   33.8460 C.3   103  TRP103      0.1605
     57  C         -2.4840    8.9410   33.3840 C.2   103  TRP103      0.2264
     58  O         -3.3020    9.3800   34.1910 O.2   103  TRP103     -0.2867
     59  CB        -0.2110    9.7360   34.0180 C.3   103  TRP103      0.0550
     60  CG         1.0430    9.4680   34.7770 C.ar  103  TRP103      0.0003
     61  CD1        2.2820    9.2240   34.2600 C.ar  103  TRP103      0.0946
     62  CD2        1.1800    9.3960   36.2000 C.ar  103  TRP103      0.0152
     63  NE1        3.1840    9.0090   35.2730 N.ar  103  TRP103     -0.2442
     64  CE2        2.5340    9.1070   36.4760 C.ar  103  TRP103      0.0810
     65  CE3        0.2880    9.5480   37.2710 C.ar  103  TRP103      0.0012
     66  CZ2        3.0200    8.9670   37.7810 C.ar  103  TRP103      0.0191
     67  CZ3        0.7740    9.4090   38.5700 C.ar  103  TRP103      0.0001
     68  CH2        2.1270    9.1210   38.8110 C.ar  103  TRP103      0.0015
     69  N         -4.9580    0.8980   34.8770 N.3   111  LYS111     -0.1245
     70  CA        -3.9000    1.8390   35.2270 C.3   111  LYS111      0.1561
     71  C         -3.0020    1.3220   36.3460 C.2   111  LYS111      0.2260
     72  O         -1.7770    1.3400   36.2310 O.2   111  LYS111     -0.2867
     73  CB        -4.5150    3.1760   35.6380 C.3   111  LYS111      0.0271
     74  CG        -3.5050    4.2820   35.8990 C.3   111  LYS111      0.0035
     75  CD        -4.2090    5.5940   36.2030 C.3   111  LYS111      0.0206
     76  CE        -3.2170    6.7340   36.3400 C.3   111  LYS111      0.1093
     77  NZ        -3.8960    8.0340   36.6200 N.3   111  LYS111     -0.1314
     78  N          1.0750    0.0970   36.0780 N.3   115  PHE115     -0.1241
     79  CA         2.1370    0.7100   36.8720 C.3   115  PHE115      0.1605
     80  C          2.9590   -0.3690   37.5680 C.2   115  PHE115      0.2264
     81  O          4.1880   -0.3630   37.5130 O.2   115  PHE115     -0.2867
     82  CB         1.5550    1.6620   37.9220 C.3   115  PHE115      0.0534
     83  CG         1.4530    3.0900   37.4590 C.ar  115  PHE115     -0.0203
     84  CD1        0.5910    3.4410   36.4270 C.ar  115  PHE115     -0.0042
     85  CD2        2.2290    4.0820   38.0540 C.ar  115  PHE115     -0.0042
     86  CE1        0.5040    4.7640   35.9880 C.ar  115  PHE115     -0.0003
     87  CE2        2.1480    5.4030   37.6240 C.ar  115  PHE115     -0.0003
     88  CZ         1.2850    5.7450   36.5880 C.ar  115  PHE115     -0.0000
     89  N         19.5040   13.7380   33.7540 N.3   151  TYR151     -0.1241
     90  CA        18.2220   13.0870   33.5240 C.3   151  TYR151      0.1605
     91  C         18.1560   11.7450   34.2340 C.2   151  TYR151      0.2264
     92  O         17.0960   11.3500   34.7140 O.2   151  TYR151     -0.2867
     93  CB        17.9500   12.9310   32.0210 C.3   151  TYR151      0.0534
     94  CG        16.4700   12.9050   31.6990 C.ar  151  TYR151     -0.0201
     95  CD1       15.6010   13.8390   32.2710 C.ar  151  TYR151     -0.0009
     96  CD2       15.9380   11.9600   30.8230 C.ar  151  TYR151     -0.0009
     97  CE1       14.2420   13.8360   31.9830 C.ar  151  TYR151      0.0417
     98  CE2       14.5740   11.9510   30.5220 C.ar  151  TYR151      0.0417
     99  CZ        13.7320   12.8930   31.1070 C.ar  151  TYR151      0.1957
    100  OH        12.3860   12.9090   30.8090 O.3   151  TYR151     -0.2866
    101  N         17.3730   12.4930   37.8250 N.3   154  ILE154     -0.1231
    102  CA        16.0000   12.9800   37.9120 C.3   154  ILE154      0.1692
    103  C         14.9730   11.8530   37.7700 C.2   154  ILE154      0.2592
    104  O         14.0450   11.7390   38.5790 O.2   154  ILE154     -0.2718
    105  CB        15.7540   14.0630   36.8330 C.3   154  ILE154      0.0266
    106  CG1       16.4870   15.3500   37.2300 C.3   154  ILE154      0.0019
    107  CG2       14.2590   14.2900   36.6310 C.3   154  ILE154      0.0020
    108  CD1       16.5540   16.4000   36.1280 C.3   154  ILE154      0.0001
    109  N         15.1420   11.0180   36.7490 N.am  155  CYS155     -0.1970
    110  CA        14.2160    9.9150   36.5310 C.3   155  CYS155      0.1712
    111  C         14.2930    8.8860   37.6520 C.2   155  CYS155      0.2296
    112  O         13.2640    8.4310   38.1510 O.2   155  CYS155     -0.2864
    113  CB        14.4910    9.2360   35.1840 C.3   155  CYS155      0.0983
    114  SG        14.0610   10.2410   33.7460 S.3   155  CYS155     -0.0798
    115  N         12.4980    9.9000   40.9580 N.3   158  THR158     -0.1203
    116  CA        11.0570    9.6910   40.9890 C.3   158  THR158      0.1994
    117  C         10.6860    8.2060   41.0160 C.2   158  THR158      0.2617
    118  O          9.7450    7.8120   41.7090 O.2   158  THR158     -0.2717
    119  CB        10.3710   10.3900   39.8060 C.3   158  THR158      0.1784
    120  OG1       10.5870   11.8010   39.9130 O.3   158  THR158     -0.2211
    121  CG2        8.8760   10.1350   39.8330 C.3   158  THR158      0.0376
    122  N         11.4220    7.3790   40.2810 N.am  159  LEU159     -0.1979
    123  CA        11.1180    5.9550   40.2810 C.3   159  LEU159      0.1596
    124  C         11.3440    5.3620   41.6680 C.2   159  LEU159      0.2287
    125  O         10.6010    4.4790   42.0970 O.2   159  LEU159     -0.2864
    126  CB        11.9740    5.2200   39.2450 C.3   159  LEU159      0.0297
    127  CG        11.6300    5.5130   37.7810 C.3   159  LEU159      0.0022
    128  CD1       12.6050    4.7720   36.8700 C.3   159  LEU159      0.0001
    129  CD2       10.1920    5.0910   37.4940 C.3   159  LEU159      0.0001
    130  N          8.3870    5.1890   43.9430 N.3   162  PHE162     -0.1241
    131  CA         7.4650    4.0880   43.7000 C.3   162  PHE162      0.1605
    132  C          8.0790    2.7260   44.0000 C.2   162  PHE162      0.2264
    133  O          7.3740    1.7930   44.3710 O.2   162  PHE162     -0.2867
    134  CB         6.9800    4.1090   42.2500 C.3   162  PHE162      0.0534
    135  CG         6.1310    5.2970   41.9130 C.ar  162  PHE162     -0.0203
    136  CD1        6.7050    6.5310   41.6340 C.ar  162  PHE162     -0.0042
    137  CD2        4.7450    5.1840   41.8990 C.ar  162  PHE162     -0.0042
    138  CE1        5.9100    7.6360   41.3480 C.ar  162  PHE162     -0.0003
    139  CE2        3.9420    6.2850   41.6160 C.ar  162  PHE162     -0.0003
    140  CZ         4.5260    7.5120   41.3400 C.ar  162  PHE162     -0.0000
    141  N          6.2050   14.2550   43.2910 N.3   198  LEU198     -0.1245
    142  CA         6.6630   14.0260   41.9240 C.3   198  LEU198      0.1561
    143  C          7.3430   15.2630   41.3310 C.2   198  LEU198      0.2260
    144  O          7.3840   16.3120   42.0120 O.2   198  LEU198     -0.2867
    145  CB         5.4760   13.6250   41.0400 C.3   198  LEU198      0.0270
    146  CG         4.6190   12.4630   41.5510 C.3   198  LEU198      0.0019
    147  CD1        3.3960   12.2960   40.6580 C.3   198  LEU198      0.0001
    148  CD2        5.4430   11.1850   41.5890 C.3   198  LEU198      0.0001
@<TRIPOS>BOND
     1    34    33    1
     2    35    33    1
     3    33    32    2
     4    32    31    1
     5    98    96   ar
     6    98    99   ar
     7    31    30    1
     8   100    99    1
     9    96    94   ar
    10    36    37    1
    11    99    97   ar
    12    38    39    2
    13    38    37    1
    14    44    45    1
    15    94    93    1
    16    94    95   ar
    17    30    29    1
    18    47    46    2
    19    37    40    1
    20    97    95   ar
    21    29    26    1
    22    93    90    1
    23    46    45    1
    24    28    27    2
    25    40    41    1
    26    45    48    1
    27    41    42    1
    28    55    56    1
    29    27    26    1
    30    26    25    1
    31    57    56    1
    32    57    58    2
    33    90    89    1
    34    90    91    1
    35     9     7   ar
    36     9    11   ar
    37     7     6   ar
    38   114   113    1
    39    48    49    1
    40    50    52   ar
    41    50    49   ar
    42    56    59    1
    43    59    60    1
    44    91    92    2
    45    61    60   ar
    46    61    63   ar
    47     1     2    1
    48    52    54   ar
    49    25    23   am
    50    49    51   ar
    51    42    43    1
    52     2     5    1
    53     2     3    1
    54    12    11    1
    55    11    10   ar
    56    60    62   ar
    57     6     5    1
    58     6     8   ar
    59    69    70    1
    60   113   110    1
    61    70    73    1
    62    70    71    1
    63    63    64   ar
    64    23    24    2
    65    23    22    1
    66    54    53   ar
    67    73    74    1
    68    51    53   ar
    69    10     8   ar
    70    74    75    1
    71     3     4    2
    72    86    84   ar
    73    86    88   ar
    74    78    79    1
    75   108   106    1
    76    62    64   ar
    77    62    65   ar
    78    75    76    1
    79    72    71    2
    80    76    77    1
    81    84    83   ar
    82    64    66   ar
    83   110   109    1
    84   110   111    1
    85    88    87   ar
    86   107   105    1
    87   109   103   am
    88    22    21    1
    89   105   106    1
    90   105   102    1
    91   128   127    1
    92    79    80    1
    93    79    82    1
    94    65    67   ar
    95    83    82    1
    96    83    85   ar
    97   129   127    1
    98    81    80    2
    99    87    85   ar
   100   111   112    2
   101   103   102    1
   102   103   104    2
   103   127   126    1
   104    66    68   ar
   105   101   102    1
   106    20    19    1
   107    67    68   ar
   108    16    15    2
   109   126   123    1
   110    19    18    1
   111   119   121    1
   112   119   120    1
   113   119   116    1
   114    17    18    1
   115    17    14    1
   116    15    14    1
   117   123   122    1
   118   123   124    1
   119   122   117   am
   120    13    14    1
   121   147   146    1
   122   115   116    1
   123   116   117    1
   124   117   118    2
   125   145   146    1
   126   145   142    1
   127   143   142    1
   128   143   144    2
   129   140   138   ar
   130   140   139   ar
   131   138   136   ar
   132   146   148    1
   133   139   137   ar
   134   136   135   ar
   135   124   125    2
   136   137   135   ar
   137   135   134    1
   138   142   141    1
   139   134   131    1
   140   131   130    1
   141   131   132    1
   142   132   133    2
