@<TRIPOS>MOLECULE
tmp/2cveA00.pdb
 81 78 0 0 0
SMALL
GASTEIGER

@<TRIPOS>ATOM
      1  N          7.0070    2.6990   44.4220 N.3    46  HIS46      -0.1241
      2  CA         6.5460    3.4080   43.2110 C.3    46  HIS46       0.1621
      3  C          7.2860    2.9160   41.9660 C.2    46  HIS46       0.2264
      4  O          8.4360    2.4830   42.0460 O.2    46  HIS46      -0.2867
      5  CB         6.8140    4.9140   43.3360 C.3    46  HIS46       0.0745
      6  CG         6.1680    5.5560   44.5140 C.ar   46  HIS46       0.0817
      7  ND1        4.8230    5.8870   44.5380 N.ar   46  HIS46      -0.2268
      8  CD2        6.6760    5.9260   45.7120 C.ar   46  HIS46       0.1154
      9  CE1        4.5350    6.4230   45.7200 C.ar   46  HIS46       0.1986
     10  NE2        5.6330    6.4560   46.4490 N.ar   46  HIS46      -0.2212
     11  N          1.8600    7.5860   42.0480 N.3    63  GLY63      -0.1210
     12  CA         1.6570    7.7330   43.4780 C.3    63  GLY63       0.1956
     13  C          2.5380    8.7510   44.1770 C.2    63  GLY63       0.2612
     14  O          2.2030    9.2120   45.2820 O.2    63  GLY63      -0.2717
     15  N          3.6670    9.0980   43.5760 N.am   64  GLU64      -0.1966
     16  CA         4.5400   10.1100   44.1950 C.3    64  GLU64       0.1718
     17  C          3.8010   11.4360   44.0550 C.2    64  GLU64       0.2458
     18  O          2.8280   11.5220   43.2970 O.2    64  GLU64      -0.2730
     19  CB         5.8740   10.1970   43.4300 C.3    64  GLU64       0.0428
     20  CG         6.7930    8.9880   43.6610 C.3    64  GLU64       0.1163
     21  CD         7.4920    9.0200   45.0110 C.2    64  GLU64       0.3649
     22  OE1        6.9680    9.6420   45.9400 O.co2  64  GLU64      -0.2457
     23  OE2        8.5940    8.4130   45.1230 O.co2  64  GLU64      -0.2457
     24  N          4.2410   12.4670   44.7830 N.am   65  PRO65      -0.2727
     25  CA         3.5460   13.7570   44.6550 C.3    65  PRO65       0.1402
     26  C          3.5880   14.1540   43.1740 C.2    65  PRO65       0.2269
     27  O          4.6140   14.0090   42.5280 O.2    65  PRO65      -0.2865
     28  CB         4.3690   14.6850   45.5230 C.3    65  PRO65       0.0296
     29  CG         4.8400   13.7660   46.6220 C.3    65  PRO65       0.0237
     30  CD         5.2530   12.5300   45.8520 C.3    65  PRO65       0.0939
     31  N         11.2180    2.5610   42.7600 N.3    91  ARG91      -0.1245
     32  CA        11.7010    3.0990   44.0300 C.3    91  ARG91       0.1563
     33  C         11.2150    2.3040   45.2280 C.2    91  ARG91       0.2260
     34  O         10.0640    1.9170   45.2910 O.2    91  ARG91      -0.2867
     35  CB        11.2430    4.5550   44.2160 C.3    91  ARG91       0.0307
     36  CG        11.7510    5.1550   45.5360 C.3    91  ARG91       0.0489
     37  CD        11.1230    6.5110   45.8520 C.3    91  ARG91       0.2205
     38  NE        11.6910    7.0920   47.0870 N.pl3  91  ARG91      -0.0865
     39  CZ        11.1070    7.9850   47.8280 C.cat  91  ARG91       0.5346
     40  NH1        9.8720    8.4310   47.5120 N.pl3  91  ARG91       0.1354
     41  NH2       11.7120    8.4570   48.9110 N.pl3  91  ARG91       0.1354
     42  N         11.1430    2.9140   49.1550 N.3    93  PHE93      -0.1241
     43  CA        11.3270    3.8720   50.2220 C.3    93  PHE93       0.1605
     44  C         12.2380    3.2930   51.2930 C.2    93  PHE93       0.2264
     45  O         12.0820    2.1150   51.6490 O.2    93  PHE93      -0.2867
     46  CB         9.9710    4.2440   50.8150 C.3    93  PHE93       0.0534
     47  CG        10.0470    5.3220   51.8880 C.ar   93  PHE93      -0.0203
     48  CD1       10.5850    6.5600   51.6010 C.ar   93  PHE93      -0.0042
     49  CD2        9.5690    5.0590   53.1640 C.ar   93  PHE93      -0.0042
     50  CE1       10.6680    7.5380   52.5920 C.ar   93  PHE93      -0.0003
     51  CE2        9.6530    6.0190   54.1670 C.ar   93  PHE93      -0.0003
     52  CZ        10.1980    7.2670   53.8680 C.ar   93  PHE93      -0.0000
     53  N         12.5950   10.7560   54.2840 N.3    97  LYS97      -0.1231
     54  CA        11.8820   11.5020   53.2550 C.3    97  LYS97       0.1693
     55  C         12.8310   12.4200   52.5170 C.2    97  LYS97       0.2592
     56  O         13.5690   13.2010   53.1250 O.2    97  LYS97      -0.2718
     57  CB        10.7460   12.3150   53.9110 C.3    97  LYS97       0.0285
     58  CG         9.6700   11.4140   54.4880 C.3    97  LYS97       0.0035
     59  CD         8.5330   12.2120   55.0930 C.3    97  LYS97       0.0206
     60  CE         7.5280   11.2490   55.7240 C.3    97  LYS97       0.1093
     61  NZ         6.3780   11.9410   56.3570 N.3    97  LYS97      -0.1314
     62  N         12.8110   12.3340   51.1960 N.am   98  LEU98      -0.1966
     63  CA        13.6780   13.1500   50.3780 C.3    98  LEU98       0.1728
     64  C         13.1280   14.5620   50.1650 C.2    98  LEU98       0.2616
     65  O         13.8920   15.5050   50.0000 O.2    98  LEU98      -0.2715
     66  CB        13.8680   12.4900   49.0010 C.3    98  LEU98       0.0311
     67  CG        14.9650   11.4260   48.8370 C.3    98  LEU98       0.0022
     68  CD1       14.7860   10.3140   49.8280 C.3    98  LEU98       0.0001
     69  CD2       14.9040   10.8880   47.4050 C.3    98  LEU98       0.0001
     70  N         11.8020   14.6830   50.2190 N.am   99  GLY99      -0.1955
     71  CA        11.1840   15.9890   49.9810 C.3    99  GLY99       0.1869
     72  C         10.9520   16.1490   48.5010 C.2    99  GLY99       0.2309
     73  O         11.6640   15.5500   47.6870 O.2    99  GLY99      -0.2863
     74  N         13.1000   14.5170   45.5040 N.3   103  LEU103     -0.1245
     75  CA        12.5170   13.5020   44.6380 C.3   103  LEU103      0.1561
     76  C         12.7780   13.8720   43.1940 C.2   103  LEU103      0.2260
     77  O         13.1560   13.0520   42.3930 O.2   103  LEU103     -0.2867
     78  CB        11.0150   13.3900   44.8980 C.3   103  LEU103      0.0270
     79  CG        10.5940   12.7820   46.2350 C.3   103  LEU103      0.0019
     80  CD1        9.0960   12.9450   46.4260 C.3   103  LEU103      0.0001
     81  CD2       11.0230   11.3280   46.2650 C.3   103  LEU103      0.0001
@<TRIPOS>BOND
     1     3     4    2
     2     3     2    1
     3    11    12    1
     4    77    76    2
     5    27    26    2
     6    31    32    1
     7    26    25    1
     8    76    75    1
     9     2     5    1
    10     2     1    1
    11    18    17    2
    12     5     6    1
    13    19    20    1
    14    19    16    1
    15    12    13    1
    16    15    13   am
    17    15    16    1
    18    20    21    1
    19    32    35    1
    20    32    33    1
    21    17    16    1
    22    17    24   am
    23    13    14    2
    24    35    36    1
    25     6     7   ar
    26     6     8   ar
    27     7     9   ar
    28    75    78    1
    29    75    74    1
    30    25    24    1
    31    25    28    1
    32    24    30    1
    33    78    79    1
    34    21    23   ar
    35    21    22   ar
    36    33    34    2
    37    28    29    1
    38    36    37    1
    39     8    10   ar
    40     9    10   ar
    41    30    29    1
    42    37    38    1
    43    79    81    1
    44    79    80    1
    45    38    39    2
    46    69    67    1
    47    40    39    1
    48    73    72    2
    49    39    41    1
    50    72    71    1
    51    67    66    1
    52    67    68    1
    53    66    63    1
    54    42    43    1
    55    71    70    1
    56    65    64    2
    57    64    70   am
    58    64    63    1
    59    43    46    1
    60    43    44    1
    61    63    62    1
    62    46    47    1
    63    62    55   am
    64    44    45    2
    65    48    47   ar
    66    48    50   ar
    67    47    49   ar
    68    55    56    2
    69    55    54    1
    70    50    52   ar
    71    49    51   ar
    72    54    57    1
    73    54    53    1
    74    52    51   ar
    75    57    58    1
    76    58    59    1
    77    59    60    1
    78    60    61    1
