@<TRIPOS>MOLECULE
tmp/2cvqA00.pdb
 167 156 0 0 0
SMALL
GASTEIGER

@<TRIPOS>ATOM
      1  N        -13.9810  -18.1620   32.0180 N.3    11  GLY11      -0.1225
      2  CA       -12.7400  -18.8110   32.4090 C.3    11  GLY11       0.1811
      3  C        -11.7410  -18.6930   31.2710 C.2    11  GLY11       0.2280
      4  O        -10.8560  -19.5260   31.1100 O.2    11  GLY11      -0.2866
      5  N         -9.0150  -17.2160   30.6470 N.3    13  ALA13      -0.1231
      6  CA        -7.5730  -17.2720   30.8460 C.3    13  ALA13       0.1694
      7  C         -7.0700  -18.6310   31.3350 C.2    13  ALA13       0.2593
      8  O         -5.8750  -18.8000   31.5680 O.2    13  ALA13      -0.2718
      9  CB        -7.1440  -16.1830   31.8250 C.3    13  ALA13       0.0304
     10  N         -7.9730  -19.5940   31.4970 N.am   14  GLY14      -0.1942
     11  CA        -7.5680  -20.9070   31.9720 C.3    14  GLY14       0.2014
     12  C         -7.0130  -21.8200   30.8890 C.2    14  GLY14       0.2639
     13  O         -6.8650  -21.4200   29.7350 O.2    14  GLY14      -0.2714
     14  N         -6.7210  -23.0610   31.2610 N.am   15  GLN15      -0.1963
     15  CA        -6.1550  -24.0280   30.3280 C.3    15  GLN15       0.1733
     16  C         -7.0360  -24.3460   29.1200 C.2    15  GLN15       0.2616
     17  O         -6.5630  -24.3210   27.9840 O.2    15  GLN15      -0.2715
     18  CB        -5.8040  -25.3130   31.0760 C.3    15  GLN15       0.0408
     19  CG        -4.8550  -25.0760   32.2390 C.3    15  GLN15       0.0908
     20  CD        -4.5210  -26.3480   32.9920 C.2    15  GLN15       0.2608
     21  OE1       -3.8110  -27.2130   32.4870 O.2    15  GLN15      -0.2717
     22  NE2       -5.0400  -26.4680   34.2050 N.am   15  GLN15      -0.0878
     23  N         -8.3100  -24.6420   29.3490 N.am   16  ILE16      -0.1963
     24  CA        -9.1960  -24.9490   28.2330 C.3    16  ILE16       0.1727
     25  C         -9.3240  -23.7330   27.3180 C.2    16  ILE16       0.2616
     26  O         -9.2680  -23.8590   26.1000 O.2    16  ILE16      -0.2715
     27  CB       -10.5970  -25.4020   28.7250 C.3    16  ILE16       0.0290
     28  CG1      -10.4940  -26.8120   29.3180 C.3    16  ILE16       0.0022
     29  CG2      -11.5940  -25.3880   27.5710 C.3    16  ILE16       0.0023
     30  CD1      -11.8130  -27.4060   29.7540 C.3    16  ILE16       0.0001
     31  N         -9.4790  -22.5540   27.9100 N.am   17  GLY17      -0.1955
     32  CA        -9.5960  -21.3470   27.1140 C.3    17  GLY17       0.1869
     33  C         -8.3850  -21.1610   26.2170 C.2    17  GLY17       0.2309
     34  O         -8.5200  -20.7980   25.0470 O.2    17  GLY17      -0.2863
     35  N        -13.4760  -13.3470   32.8620 N.3    42  GLU42      -0.1231
     36  CA       -12.5780  -13.9430   33.8380 C.3    42  GLU42       0.1699
     37  C        -12.9230  -13.3760   35.2050 C.2    42  GLU42       0.2592
     38  O        -13.6750  -12.4060   35.3060 O.2    42  GLU42      -0.2718
     39  CB       -11.1240  -13.6030   33.5160 C.3    42  GLU42       0.0402
     40  CG       -10.3130  -14.7580   32.9540 C.3    42  GLU42       0.1161
     41  CD       -10.3730  -15.9860   33.8420 C.2    42  GLU42       0.3649
     42  OE1      -10.6940  -15.8350   35.0370 O.co2  42  GLU42      -0.2457
     43  OE2      -10.0930  -17.0960   33.3480 O.co2  42  GLU42      -0.2457
     44  N        -12.3900  -13.9870   36.2560 N.am   43  ILE43      -0.1980
     45  CA       -12.6200  -13.4740   37.5950 C.3    43  ILE43       0.1595
     46  C        -11.6440  -12.3050   37.7230 C.2    43  ILE43       0.2287
     47  O        -10.5990  -12.2890   37.0710 O.2    43  ILE43      -0.2864
     48  CB       -12.3280  -14.5350   38.6770 C.3    43  ILE43       0.0276
     49  CG1      -10.8770  -15.0010   38.5830 C.3    43  ILE43       0.0022
     50  CG2      -13.2910  -15.7140   38.5160 C.3    43  ILE43       0.0022
     51  CD1      -10.4520  -15.9380   39.7110 C.3    43  ILE43       0.0001
     52  N         -7.9000  -12.6940   37.6200 N.3    46  ALA46      -0.1245
     53  CA        -7.2800  -13.2260   36.4130 C.3    46  ALA46       0.1562
     54  C         -7.4030  -12.3010   35.2040 C.2    46  ALA46       0.2260
     55  O         -7.1290  -12.7090   34.0750 O.2    46  ALA46      -0.2867
     56  CB        -7.8800  -14.5890   36.0890 C.3    46  ALA46       0.0290
     57  N        -17.0780  -22.1430   30.6690 N.3    87  VAL87      -0.1231
     58  CA       -15.9560  -22.9980   31.0350 C.3    87  VAL87       0.1692
     59  C        -15.5470  -22.8440   32.4920 C.2    87  VAL87       0.2593
     60  O        -15.2560  -23.8330   33.1720 O.2    87  VAL87      -0.2718
     61  CB       -14.7280  -22.6910   30.1410 C.3    87  VAL87       0.0266
     62  CG1      -13.6190  -23.6850   30.4170 C.3    87  VAL87       0.0020
     63  CG2      -15.1300  -22.7340   28.6660 C.3    87  VAL87       0.0020
     64  N        -15.5210  -21.5990   32.9630 N.am   88  GLY88      -0.1942
     65  CA       -15.1400  -21.3310   34.3350 C.3    88  GLY88       0.2014
     66  C        -16.1530  -21.7910   35.3740 C.2    88  GLY88       0.2639
     67  O        -17.3340  -21.4530   35.3030 O.2    88  GLY88      -0.2714
     68  N        -15.6830  -22.5760   36.3370 N.am   89  ALA89      -0.1963
     69  CA       -16.5210  -23.0810   37.4120 C.3    89  ALA89       0.1728
     70  C        -15.8040  -22.7740   38.7150 C.2    89  ALA89       0.2616
     71  O        -14.8420  -22.0050   38.7360 O.2    89  ALA89      -0.2715
     72  CB       -16.7340  -24.5910   37.2670 C.3    89  ALA89       0.0334
     73  N        -16.2680  -23.3780   39.8010 N.am   90  ALA90      -0.1964
     74  CA       -15.6610  -23.1550   41.1030 C.3    90  ALA90       0.1713
     75  C        -14.3570  -23.9230   41.2530 C.2    90  ALA90       0.2458
     76  O        -14.3080  -25.1340   41.0310 O.2    90  ALA90      -0.2730
     77  CB       -16.6230  -23.5670   42.1960 C.3    90  ALA90       0.0333
     78  N        -13.2760  -23.2230   41.6240 N.am   91  PRO91      -0.2716
     79  CA       -11.9730  -23.8690   41.8040 C.3    91  PRO91       0.1536
     80  C        -11.9860  -24.6500   43.1120 C.2    91  PRO91       0.2598
     81  O        -12.2690  -24.0840   44.1700 O.2    91  PRO91      -0.2715
     82  CB       -11.0150  -22.6850   41.8540 C.3    91  PRO91       0.0310
     83  CG       -11.8440  -21.6380   42.5430 C.3    91  PRO91       0.0237
     84  CD       -13.1750  -21.7680   41.8350 C.3    91  PRO91       0.0939
     85  N        -11.6910  -25.9450   43.0500 N.am   92  ARG92      -0.1978
     86  CA       -11.6920  -26.7480   44.2630 C.3    92  ARG92       0.1597
     87  C        -10.4020  -26.5790   45.0500 C.2    92  ARG92       0.2287
     88  O         -9.3600  -27.1280   44.6860 O.2    92  ARG92      -0.2864
     89  CB       -11.8930  -28.2300   43.9480 C.3    92  ARG92       0.0334
     90  CG       -12.1340  -29.0620   45.2000 C.3    92  ARG92       0.0492
     91  CD       -12.1690  -30.5500   44.9140 C.3    92  ARG92       0.2205
     92  NE       -12.6490  -31.2970   46.0730 N.pl3  92  ARG92      -0.0865
     93  CZ       -12.7060  -32.6240   46.1410 C.cat  92  ARG92       0.5346
     94  NH1      -12.3070  -33.3630   45.1130 N.pl3  92  ARG92       0.1354
     95  NH2      -13.1740  -33.2130   47.2350 N.pl3  92  ARG92       0.1354
     96  N        -19.1400  -26.3770   30.1050 N.3   129  VAL129     -0.1231
     97  CA       -17.9870  -27.2680   30.1930 C.3   129  VAL129      0.1692
     98  C        -17.5010  -27.3730   31.6470 C.2   129  VAL129      0.2593
     99  O        -17.0010  -28.4170   32.0700 O.2   129  VAL129     -0.2718
    100  CB       -16.8230  -26.7590   29.3120 C.3   129  VAL129      0.0266
    101  CG1      -15.6210  -27.6720   29.4520 C.3   129  VAL129      0.0020
    102  CG2      -17.2680  -26.6840   27.8540 C.3   129  VAL129      0.0020
    103  N        -17.6400  -26.2850   32.4010 N.am  130  GLY130     -0.1942
    104  CA       -17.2140  -26.2850   33.7940 C.3   130  GLY130      0.2014
    105  C        -17.9520  -27.3520   34.5790 C.2   130  GLY130      0.2638
    106  O        -19.1740  -27.4440   34.5020 O.2   130  GLY130     -0.2714
    107  N        -17.2150  -28.1580   35.3350 N.am  131  ASN131     -0.1972
    108  CA       -17.8220  -29.2410   36.1050 C.3   131  ASN131      0.1688
    109  C        -18.4060  -28.8400   37.4530 C.2   131  ASN131      0.2292
    110  O        -17.9410  -27.8920   38.0860 O.2   131  ASN131     -0.2864
    111  CB       -16.8080  -30.3750   36.3090 C.3   131  ASN131      0.1181
    112  CG       -16.7320  -31.3110   35.1130 C.2   131  ASN131      0.2629
    113  OD1      -17.7510  -31.6250   34.4960 O.2   131  ASN131     -0.2716
    114  ND2      -15.5310  -31.7800   34.7960 N.am  131  ASN131     -0.0877
    115  N        -21.3910  -30.6140   27.9940 N.3   155  MET155     -0.1245
    116  CA       -20.5340  -31.4010   27.1210 C.3   155  MET155      0.1570
    117  C        -20.2510  -32.8490   27.5080 C.2   155  MET155      0.2261
    118  O        -19.9560  -33.1600   28.6590 O.2   155  MET155     -0.2867
    119  CB       -19.1960  -30.6750   26.9380 C.3   155  MET155      0.0387
    120  CG       -18.2620  -31.3140   25.9180 C.3   155  MET155      0.0595
    121  SD       -16.7160  -30.4000   25.7230 S.3   155  MET155     -0.1393
    122  CE       -15.7190  -31.1260   27.0530 C.3   155  MET155      0.0692
    123  N        -16.2320  -34.9940   24.5250 N.3   158  LEU158     -0.1245
    124  CA       -14.8790  -35.5210   24.7120 C.3   158  LEU158      0.1561
    125  C        -14.9690  -37.0230   24.9770 C.2   158  LEU158      0.2260
    126  O        -14.1950  -37.8010   24.4270 O.2   158  LEU158     -0.2867
    127  CB       -14.1580  -34.8250   25.8780 C.3   158  LEU158      0.0270
    128  CG       -12.7340  -35.3160   26.2010 C.3   158  LEU158      0.0019
    129  CD1      -11.8310  -35.1950   24.9730 C.3   158  LEU158      0.0001
    130  CD2      -12.1570  -34.4950   27.3510 C.3   158  LEU158      0.0001
    131  N        -13.4880  -39.8790   22.6890 N.3   162  ARG162     -0.1245
    132  CA       -12.5860  -40.8580   23.2820 C.3   162  ARG162      0.1563
    133  C        -13.0860  -42.2710   22.9910 C.2   162  ARG162      0.2260
    134  O        -12.3000  -43.1830   22.7310 O.2   162  ARG162     -0.2867
    135  CB       -12.4950  -40.6390   24.7930 C.3   162  ARG162      0.0307
    136  CG       -11.6370  -39.4470   25.1820 C.3   162  ARG162      0.0489
    137  CD       -11.8290  -39.0720   26.6420 C.3   162  ARG162      0.2205
    138  NE       -10.7930  -38.1570   27.1060 N.pl3 162  ARG162     -0.0865
    139  CZ       -10.8220  -37.5320   28.2800 C.cat 162  ARG162      0.5346
    140  NH1      -11.8390  -37.7200   29.1070 N.pl3 162  ARG162      0.1354
    141  NH2       -9.8260  -36.7320   28.6350 N.pl3 162  ARG162      0.1354
    142  N         -9.1970  -39.3480   31.0940 N.3   226  GLY226     -0.1225
    143  CA        -8.7550  -38.0540   31.5800 C.3   226  GLY226      0.1811
    144  C         -7.6370  -38.1730   32.5980 C.2   226  GLY226      0.2280
    145  O         -6.6940  -37.3810   32.5970 O.2   226  GLY226     -0.2866
    146  N         -3.9500  -31.6110   32.8130 N.3   236  SER236     -0.1202
    147  CA        -5.2490  -31.9880   32.2670 C.3   236  SER236      0.2020
    148  C         -5.2840  -31.9710   30.7360 C.2   236  SER236      0.2619
    149  O         -4.4650  -31.3130   30.0870 O.2   236  SER236     -0.2717
    150  CB        -6.3290  -31.0520   32.8160 C.3   236  SER236      0.2103
    151  OG        -6.0460  -29.7100   32.4560 O.3   236  SER236     -0.2182
    152  N         -6.2430  -32.6980   30.1690 N.am  237  SER237     -0.1937
    153  CA        -6.3940  -32.7910   28.7210 C.3   237  SER237      0.2055
    154  C         -7.1760  -31.6090   28.1520 C.2   237  SER237      0.2642
    155  O         -8.2240  -31.7840   27.5390 O.2   237  SER237     -0.2714
    156  CB        -7.0860  -34.1120   28.3590 C.3   237  SER237      0.2130
    157  OG        -8.2370  -34.3220   29.1620 O.3   237  SER237     -0.2179
    158  N         -6.6450  -30.4090   28.3580 N.am  238  ALA238     -0.1977
    159  CA        -7.2760  -29.1750   27.9000 C.3   238  ALA238      0.1597
    160  C         -7.4360  -29.0370   26.3860 C.2   238  ALA238      0.2287
    161  O         -8.4340  -28.4960   25.9170 O.2   238  ALA238     -0.2864
    162  CB        -6.5000  -27.9770   28.4400 C.3   238  ALA238      0.0319
    163  N        -10.1550  -31.4170   25.1790 N.3   241  ALA241     -0.1245
    164  CA       -11.4280  -30.9710   25.7380 C.3   241  ALA241      0.1562
    165  C        -11.9180  -29.7620   24.9320 C.2   241  ALA241      0.2260
    166  O        -13.1060  -29.6400   24.6420 O.2   241  ALA241     -0.2867
    167  CB       -11.2640  -30.5930   27.2130 C.3   241  ALA241      0.0290
@<TRIPOS>BOND
     1   131   132    1
     2   134   133    2
     3   133   132    1
     4   132   135    1
     5   126   125    2
     6   123   124    1
     7   166   165    2
     8   124   125    1
     9   124   127    1
    10   135   136    1
    11   165   164    1
    12   129   128    1
    13    34    33    2
    14   163   164    1
    15   136   137    1
    16   121   120    1
    17   121   122    1
    18   164   167    1
    19   127   128    1
    20   161   160    2
    21   120   119    1
    22    26    25    2
    23   128   130    1
    24    33    32    1
    25   160   159    1
    26   137   138    1
    27   119   116    1
    28   138   139    2
    29    32    31    1
    30   116   117    1
    31   116   115    1
    32    25    31   am
    33    25    24    1
    34   117   118    2
    35   155   154    2
    36    29    27    1
    37   102   100    1
    38   159   158    1
    39   159   162    1
    40    17    16    2
    41   154   158   am
    42   154   153    1
    43    24    27    1
    44    24    23    1
    45   139   141    1
    46   139   140    1
    47   156   153    1
    48   156   157    1
    49    63    61    1
    50   153   152    1
    51    27    28    1
    52    16    23   am
    53    16    15    1
    54   100   101    1
    55   100    97    1
    56    28    30    1
    57    13    12    2
    58   149   148    2
    59    96    97    1
    60    61    62    1
    61    61    58    1
    62   152   148   am
    63    97    98    1
    64    15    18    1
    65    15    14    1
    66     5     6    1
    67    57    58    1
    68   148   147    1
    69     6     7    1
    70     6     9    1
    71    12    14   am
    72    12    11    1
    73    58    59    1
    74    18    19    1
    75   142   143    1
    76     4     3    2
    77     3     2    1
    78     7    10   am
    79     7     8    2
    80    10    11    1
    81   143   144    1
    82    98    99    2
    83    98   103   am
    84     1     2    1
    85    19    20    1
    86   147   146    1
    87   147   150    1
    88   103   104    1
    89   151   150    1
    90    21    20    2
    91    59    64   am
    92    59    60    2
    93   145   144    2
    94    35    36    1
    95    40    39    1
    96    40    41    1
    97    64    65    1
    98    20    22   am
    99    43    41   ar
   100    39    36    1
   101   104   105    1
   102    36    37    1
   103    41    42   ar
   104    55    54    2
   105    65    66    1
   106   113   112    2
   107   106   105    2
   108   105   107   am
   109   114   112   am
   110   112   111    1
   111    54    53    1
   112    37    38    2
   113    37    44   am
   114    67    66    2
   115   107   108    1
   116    66    68   am
   117    56    53    1
   118   108   111    1
   119   108   109    1
   120    44    45    1
   121    68    69    1
   122    53    52    1
   123    47    46    2
   124    72    69    1
   125    69    70    1
   126   109   110    2
   127    45    46    1
   128    45    48    1
   129    50    48    1
   130    49    48    1
   131    49    51    1
   132    70    71    2
   133    70    73   am
   134    73    74    1
   135    76    75    2
   136    74    75    1
   137    74    77    1
   138    75    78   am
   139    78    79    1
   140    78    84    1
   141    79    82    1
   142    79    80    1
   143    84    83    1
   144    82    83    1
   145    85    80   am
   146    85    86    1
   147    80    81    2
   148    89    86    1
   149    89    90    1
   150    86    87    1
   151    88    87    2
   152    91    90    1
   153    91    92    1
   154    94    93    1
   155    92    93    2
   156    93    95    1
