@<TRIPOS>MOLECULE
tmp/2cvqA02.pdb
 99 89 0 0 0
SMALL
GASTEIGER

@<TRIPOS>ATOM
      1  N        -17.2150  -28.1580   35.3350 N.3   131  ASN131     -0.1240
      2  CA       -17.8220  -29.2410   36.1050 C.3   131  ASN131      0.1653
      3  C        -18.4060  -28.8400   37.4530 C.2   131  ASN131      0.2266
      4  O        -17.9410  -27.8920   38.0860 O.2   131  ASN131     -0.2867
      5  CB       -16.8080  -30.3750   36.3090 C.3   131  ASN131      0.1155
      6  CG       -16.7320  -31.3110   35.1130 C.2   131  ASN131      0.2627
      7  OD1      -17.7510  -31.6250   34.4960 O.2   131  ASN131     -0.2716
      8  ND2      -15.5310  -31.7800   34.7960 N.am  131  ASN131     -0.0877
      9  N        -20.6050  -30.3250   34.8200 N.3   133  ALA133     -0.1245
     10  CA       -21.3170  -29.8270   33.6430 C.3   133  ALA133      0.1562
     11  C        -22.8400  -29.9620   33.6030 C.2   133  ALA133      0.2260
     12  O        -23.5430  -28.9580   33.4790 O.2   133  ALA133     -0.2867
     13  CB       -20.7130  -30.4450   32.3830 C.3   133  ALA133      0.0290
     14  N        -21.3910  -30.6140   27.9940 N.3   155  MET155     -0.1245
     15  CA       -20.5340  -31.4010   27.1210 C.3   155  MET155      0.1570
     16  C        -20.2510  -32.8490   27.5080 C.2   155  MET155      0.2261
     17  O        -19.9560  -33.1600   28.6590 O.2   155  MET155     -0.2867
     18  CB       -19.1960  -30.6750   26.9380 C.3   155  MET155      0.0387
     19  CG       -18.2620  -31.3140   25.9180 C.3   155  MET155      0.0595
     20  SD       -16.7160  -30.4000   25.7230 S.3   155  MET155     -0.1393
     21  CE       -15.7190  -31.1260   27.0530 C.3   155  MET155      0.0692
     22  N        -16.2320  -34.9940   24.5250 N.3   158  LEU158     -0.1231
     23  CA       -14.8790  -35.5210   24.7120 C.3   158  LEU158      0.1693
     24  C        -14.9690  -37.0230   24.9770 C.2   158  LEU158      0.2592
     25  O        -14.1950  -37.8010   24.4270 O.2   158  LEU158     -0.2718
     26  CB       -14.1580  -34.8250   25.8780 C.3   158  LEU158      0.0284
     27  CG       -12.7340  -35.3160   26.2010 C.3   158  LEU158      0.0019
     28  CD1      -11.8310  -35.1950   24.9730 C.3   158  LEU158      0.0001
     29  CD2      -12.1570  -34.4950   27.3510 C.3   158  LEU158      0.0001
     30  N        -15.9200  -37.4200   25.8200 N.am  159  ASP159     -0.1974
     31  CA       -16.1330  -38.8330   26.1480 C.3   159  ASP159      0.1709
     32  C        -16.5080  -39.5750   24.8760 C.2   159  ASP159      0.2293
     33  O        -16.0500  -40.6890   24.6310 O.2   159  ASP159     -0.2864
     34  CB       -17.2700  -38.9740   27.1600 C.3   159  ASP159      0.1436
     35  CG       -16.9760  -38.2690   28.4550 C.2   159  ASP159      0.3671
     36  OD1      -16.2300  -38.8320   29.2720 O.co2 159  ASP159     -0.2456
     37  OD2      -17.4790  -37.1450   28.6480 O.co2 159  ASP159     -0.2456
     38  N        -13.4880  -39.8790   22.6890 N.3   162  ARG162     -0.1245
     39  CA       -12.5860  -40.8580   23.2820 C.3   162  ARG162      0.1563
     40  C        -13.0860  -42.2710   22.9910 C.2   162  ARG162      0.2260
     41  O        -12.3000  -43.1830   22.7310 O.2   162  ARG162     -0.2867
     42  CB       -12.4950  -40.6390   24.7930 C.3   162  ARG162      0.0307
     43  CG       -11.6370  -39.4470   25.1820 C.3   162  ARG162      0.0489
     44  CD       -11.8290  -39.0720   26.6420 C.3   162  ARG162      0.2205
     45  NE       -10.7930  -38.1570   27.1060 N.pl3 162  ARG162     -0.0865
     46  CZ       -10.8220  -37.5320   28.2800 C.cat 162  ARG162      0.5346
     47  NH1      -11.8390  -37.7200   29.1070 N.pl3 162  ARG162      0.1354
     48  NH2       -9.8260  -36.7320   28.6350 N.pl3 162  ARG162      0.1354
     49  N        -21.7550  -36.5700   32.8090 N.3   187  HIS187     -0.1226
     50  CA       -20.4130  -36.3580   32.2770 C.3   187  HIS187      0.1752
     51  C        -19.4030  -37.2020   33.0620 C.2   187  HIS187      0.2596
     52  O        -18.3180  -37.5100   32.5700 O.2   187  HIS187     -0.2718
     53  CB       -20.0420  -34.8830   32.4120 C.3   187  HIS187      0.0759
     54  CG       -19.8420  -34.4510   33.8300 C.ar  187  HIS187      0.0818
     55  ND1      -18.6350  -34.5830   34.4840 N.ar  187  HIS187     -0.2268
     56  CD2      -20.7150  -33.9700   34.7470 C.ar  187  HIS187      0.1154
     57  CE1      -18.7750  -34.2060   35.7420 C.ar  187  HIS187      0.1986
     58  NE2      -20.0280  -33.8320   35.9280 N.ar  187  HIS187     -0.2212
     59  N        -19.7900  -37.5710   34.2810 N.am  188  SER188     -0.1952
     60  CA       -18.9630  -38.3420   35.2110 C.3   188  SER188      0.1924
     61  C        -18.6620  -39.7900   34.8540 C.2   188  SER188      0.2314
     62  O        -18.8320  -40.2230   33.7190 O.2   188  SER188     -0.2863
     63  CB       -19.6210  -38.3360   36.5840 C.3   188  SER188      0.2116
     64  OG       -20.8110  -39.1030   36.5350 O.3   188  SER188     -0.2180
     65  N        -21.0890  -42.2460   33.3460 N.3   191  MET191     -0.1245
     66  CA       -21.3200  -41.9570   31.9350 C.3   191  MET191      0.1570
     67  C        -21.2930  -43.2850   31.1870 C.2   191  MET191      0.2261
     68  O        -20.4110  -44.1080   31.4170 O.2   191  MET191     -0.2867
     69  CB       -20.2240  -41.0050   31.4400 C.3   191  MET191      0.0387
     70  CG       -20.0200  -40.9340   29.9450 C.3   191  MET191      0.0595
     71  SD       -19.0030  -42.2970   29.3610 S.3   191  MET191     -0.1393
     72  CE       -17.4710  -41.9730   30.2530 C.3   191  MET191      0.0692
     73  N        -12.3770  -45.6370   28.7790 N.3   222  VAL222     -0.1231
     74  CA       -12.9510  -44.3600   28.3780 C.3   222  VAL222      0.1692
     75  C        -13.1660  -43.5180   29.6370 C.2   222  VAL222      0.2591
     76  O        -12.8710  -42.3260   29.6560 O.2   222  VAL222     -0.2718
     77  CB       -14.3040  -44.5450   27.6490 C.3   222  VAL222      0.0266
     78  CG1      -14.9520  -43.1890   27.3970 C.3   222  VAL222      0.0020
     79  CG2      -14.0850  -45.2790   26.3220 C.3   222  VAL222      0.0020
     80  N        -13.6560  -44.1530   30.6990 N.am  223  ALA223     -0.1980
     81  CA       -13.9100  -43.4500   31.9520 C.3   223  ALA223      0.1597
     82  C        -12.6550  -42.8860   32.6210 C.2   223  ALA223      0.2287
     83  O        -12.6980  -41.8110   33.2160 O.2   223  ALA223     -0.2864
     84  CB       -14.6360  -44.3710   32.9210 C.3   223  ALA223      0.0319
     85  N         -9.1970  -39.3480   31.0940 N.3   226  GLY226     -0.1225
     86  CA        -8.7550  -38.0540   31.5800 C.3   226  GLY226      0.1811
     87  C         -7.6370  -38.1730   32.5980 C.2   226  GLY226      0.2280
     88  O         -6.6940  -37.3810   32.5970 O.2   226  GLY226     -0.2866
     89  N         -6.2430  -32.6980   30.1690 N.3   237  SER237     -0.1217
     90  CA        -6.3940  -32.7910   28.7210 C.3   237  SER237      0.1889
     91  C         -7.1760  -31.6090   28.1520 C.2   237  SER237      0.2288
     92  O         -8.2240  -31.7840   27.5390 O.2   237  SER237     -0.2866
     93  CB        -7.0860  -34.1120   28.3590 C.3   237  SER237      0.2089
     94  OG        -8.2370  -34.3220   29.1620 O.3   237  SER237     -0.2183
     95  N        -10.1550  -31.4170   25.1790 N.3   241  ALA241     -0.1245
     96  CA       -11.4280  -30.9710   25.7380 C.3   241  ALA241      0.1562
     97  C        -11.9180  -29.7620   24.9320 C.2   241  ALA241      0.2260
     98  O        -13.1060  -29.6400   24.6420 O.2   241  ALA241     -0.2867
     99  CB       -11.2640  -30.5930   27.2130 C.3   241  ALA241      0.0290
@<TRIPOS>BOND
     1    38    39    1
     2    41    40    2
     3    40    39    1
     4    39    42    1
     5    25    24    2
     6    22    23    1
     7    33    32    2
     8    98    97    2
     9    23    24    1
    10    23    26    1
    11    42    43    1
    12    32    31    1
    13    97    96    1
    14    28    27    1
    15    24    30   am
    16    95    96    1
    17    43    44    1
    18    20    19    1
    19    20    21    1
    20    96    99    1
    21    30    31    1
    22    26    27    1
    23    19    18    1
    24    31    34    1
    25    27    29    1
    26    79    77    1
    27    44    45    1
    28    18    15    1
    29    45    46    2
    30    15    16    1
    31    15    14    1
    32    34    35    1
    33    78    77    1
    34    16    17    2
    35    92    91    2
    36    77    74    1
    37    91    90    1
    38    46    48    1
    39    46    47    1
    40    93    90    1
    41    93    94    1
    42    74    73    1
    43    74    75    1
    44    35    37   ar
    45    35    36   ar
    46    90    89    1
    47    71    70    1
    48    71    72    1
    49    75    76    2
    50    75    80   am
    51    70    69    1
    52    80    81    1
    53    85    86    1
    54    67    68    2
    55    67    66    1
    56    69    66    1
    57    86    87    1
    58    66    65    1
    59    81    82    1
    60    81    84    1
    61    50    53    1
    62    50    49    1
    63    50    51    1
    64    13    10    1
    65    53    54    1
    66    52    51    2
    67    88    87    2
    68    82    83    2
    69    51    59   am
    70    12    11    2
    71    11    10    1
    72    10     9    1
    73    62    61    2
    74    54    55   ar
    75    54    56   ar
    76    59    60    1
    77    55    57   ar
    78     7     6    2
    79    56    58   ar
    80     8     6   am
    81    61    60    1
    82     6     5    1
    83    60    63    1
    84     1     2    1
    85    57    58   ar
    86     2     5    1
    87     2     3    1
    88    64    63    1
    89     3     4    2
