@<TRIPOS>MOLECULE
tmp/2cvwA01.pdb
 137 130 0 0 0
SMALL
GASTEIGER

@<TRIPOS>ATOM
      1  N         29.8250   53.1470   22.0450 N.3   111  ALA111     -0.1231
      2  CA        28.7330   53.3250   21.1020 C.3   111  ALA111      0.1694
      3  C         28.3580   54.8030   20.9370 C.2   111  ALA111      0.2593
      4  O         28.5100   55.5900   21.8550 O.2   111  ALA111     -0.2718
      5  CB        27.5350   52.5420   21.5650 C.3   111  ALA111      0.0304
      6  N         27.8230   55.1450   19.7670 N.am  112  SER112     -0.1939
      7  CA        27.4680   56.5150   19.4080 C.3   112  SER112      0.2040
      8  C         26.7810   57.3590   20.4760 C.2   112  SER112      0.2485
      9  O         27.2500   58.4490   20.7410 O.2   112  SER112     -0.2729
     10  CB        26.6770   56.5310   18.1050 C.3   112  SER112      0.2129
     11  OG        27.5560   56.1750   17.0510 O.3   112  SER112     -0.2179
     12  N         25.6770   56.9120   21.0750 N.am  113  PRO113     -0.2726
     13  CA        25.0670   57.6990   22.1580 C.3   113  PRO113      0.1402
     14  C         26.0710   58.1260   23.2610 C.2   113  PRO113      0.2269
     15  O         26.0300   59.2610   23.7210 O.2   113  PRO113     -0.2865
     16  CB        23.9800   56.7590   22.7040 C.3   113  PRO113      0.0296
     17  CG        23.6000   55.9160   21.5160 C.3   113  PRO113      0.0237
     18  CD        24.8820   55.7040   20.7650 C.3   113  PRO113      0.0939
     19  N         22.2440   52.7750   23.9930 N.3   127  SER127     -0.1202
     20  CA        21.9090   52.5470   22.6010 C.3   127  SER127      0.2020
     21  C         20.6000   51.7720   22.4130 C.2   127  SER127      0.2619
     22  O         19.9800   51.8720   21.3640 O.2   127  SER127     -0.2717
     23  CB        23.0490   51.7990   21.9210 C.3   127  SER127      0.2103
     24  OG        24.3090   52.3270   22.3050 O.3   127  SER127     -0.2182
     25  N         20.1740   51.0010   23.4100 N.am  128  CYS128     -0.1969
     26  CA        19.1470   49.9970   23.1700 C.3   128  CYS128      0.1712
     27  C         18.0720   50.1000   24.1960 C.2   128  CYS128      0.2296
     28  O         18.3850   50.2580   25.3750 O.2   128  CYS128     -0.2864
     29  CB        19.7540   48.5850   23.3150 C.3   128  CYS128      0.0983
     30  SG        21.1460   48.2730   22.2430 S.3   128  CYS128     -0.0798
     31  N         19.3570   56.2490   20.7300 N.3   156  GLY156     -0.1210
     32  CA        19.0200   54.8470   21.0280 C.3   156  GLY156      0.1956
     33  C         17.8660   54.2900   20.1900 C.2   156  GLY156      0.2612
     34  O         16.9520   55.0250   19.8140 O.2   156  GLY156     -0.2717
     35  N         17.9200   52.9930   19.9010 N.am  157  GLY157     -0.1956
     36  CA        16.8840   52.3300   19.1580 C.3   157  GLY157      0.1869
     37  C         15.9930   51.5080   20.0570 C.2   157  GLY157      0.2309
     38  O         16.3680   51.1190   21.1620 O.2   157  GLY157     -0.2863
     39  N         18.9880   60.9360   11.8410 N.3   203  ARG203     -0.1245
     40  CA        19.0490   59.4600   12.0810 C.3   203  ARG203      0.1563
     41  C         17.6230   58.9180   12.3390 C.2   203  ARG203      0.2260
     42  O         17.4680   57.9930   13.1480 O.2   203  ARG203     -0.2867
     43  CB        19.9350   59.0640   13.2840 C.3   203  ARG203      0.0307
     44  CG        20.7160   60.1860   13.9700 C.3   203  ARG203      0.0489
     45  CD        20.6930   60.1350   15.4890 C.3   203  ARG203      0.2205
     46  NE        20.8000   61.4860   16.0340 N.pl3 203  ARG203     -0.0865
     47  CZ        20.6240   61.8210   17.3100 C.cat 203  ARG203      0.5346
     48  NH1       20.3230   60.9010   18.2240 N.pl3 203  ARG203      0.1354
     49  NH2       20.7430   63.0940   17.6710 N.pl3 203  ARG203      0.1354
     50  N         13.3380   57.8270   12.4460 N.3   205  GLY205     -0.1210
     51  CA        12.5580   56.5970   12.2420 C.3   205  GLY205      0.1956
     52  C         12.9410   55.4920   13.2300 C.2   205  GLY205      0.2611
     53  O         13.1910   55.7570   14.4180 O.2   205  GLY205     -0.2717
     54  N         12.9300   54.2480   12.7330 N.am  206  ALA206     -0.1979
     55  CA        13.5170   53.0610   13.4030 C.3   206  ALA206      0.1597
     56  C         12.9910   52.5780   14.7890 C.2   206  ALA206      0.2287
     57  O         13.5950   52.8430   15.8400 O.2   206  ALA206     -0.2864
     58  CB        15.0700   53.1640   13.4040 C.3   206  ALA206      0.0319
     59  N         15.9640   43.5120   20.1530 N.3   336  ASN336     -0.1225
     60  CA        15.9930   44.9630   20.0290 C.3   336  ASN336      0.1785
     61  C         16.0270   45.3880   18.5530 C.2   336  ASN336      0.2597
     62  O         15.8050   44.5780   17.6610 O.2   336  ASN336     -0.2718
     63  CB        17.2230   45.5190   20.7840 C.3   336  ASN336      0.1169
     64  CG        18.5110   45.1350   20.1120 C.2   336  ASN336      0.2627
     65  OD1       18.7230   43.9600   19.8170 O.2   336  ASN336     -0.2716
     66  ND2       19.3380   46.1290   19.7640 N.am  336  ASN336     -0.0877
     67  N         16.3150   46.6580   18.3110 N.am  337  LEU337     -0.1966
     68  CA        16.4250   47.1810   16.9600 C.3   337  LEU337      0.1728
     69  C         17.3620   46.3900   16.0080 C.2   337  LEU337      0.2616
     70  O         16.9860   46.1470   14.8590 O.2   337  LEU337     -0.2715
     71  CB        16.7480   48.6830   16.9700 C.3   337  LEU337      0.0311
     72  CG        16.7500   49.3810   15.5950 C.3   337  LEU337      0.0022
     73  CD1       15.4560   49.0920   14.8260 C.3   337  LEU337      0.0001
     74  CD2       16.9540   50.8810   15.7520 C.3   337  LEU337      0.0001
     75  N         18.5520   45.9900   16.4680 N.am  338  CYS338     -0.1968
     76  CA        19.5280   45.3250   15.5730 C.3   338  CYS338      0.1712
     77  C         19.8100   43.8730   15.9080 C.2   338  CYS338      0.2296
     78  O         20.7470   43.2910   15.3680 O.2   338  CYS338     -0.2864
     79  CB        20.8360   46.1040   15.4810 C.3   338  CYS338      0.0983
     80  SG        20.5620   47.8610   15.2380 S.3   338  CYS338     -0.0798
     81  N         20.8660   42.1750   18.5360 N.3   340  GLU340     -0.1245
     82  CA        21.9910   41.7040   19.3150 C.3   340  GLU340      0.1567
     83  C         21.5730   41.4900   20.7820 C.2   340  GLU340      0.2260
     84  O         22.0850   40.5760   21.4510 O.2   340  GLU340     -0.2867
     85  CB        23.2160   42.6410   19.1770 C.3   340  GLU340      0.0388
     86  CG        23.0990   43.9770   19.9210 C.3   340  GLU340      0.1160
     87  CD        22.6080   45.1300   19.0610 C.2   340  GLU340      0.3649
     88  OE1       23.2230   46.2390   19.1480 O.co2 340  GLU340     -0.2457
     89  OE2       21.6060   44.9510   18.3050 O.co2 340  GLU340     -0.2457
     90  N         26.7450   49.8800   25.1050 N.3   355  LEU355     -0.1245
     91  CA        27.5590   49.0730   24.2150 C.3   355  LEU355      0.1561
     92  C         28.9210   49.7050   24.0130 C.2   355  LEU355      0.2260
     93  O         29.0620   50.9320   24.0740 O.2   355  LEU355     -0.2867
     94  CB        26.8820   48.9620   22.8390 C.3   355  LEU355      0.0270
     95  CG        25.6460   48.1140   22.5130 C.3   355  LEU355      0.0019
     96  CD1       24.5010   48.3570   23.4060 C.3   355  LEU355      0.0001
     97  CD2       25.2200   48.4370   21.0990 C.3   355  LEU355      0.0001
     98  N         27.4990   43.9310   18.2130 N.3   516  MET516     -0.1231
     99  CA        26.5230   44.8030   17.5630 C.3   516  MET516      0.1687
    100  C         27.0010   45.1420   16.1400 C.2   516  MET516      0.2434
    101  O         28.1030   44.7290   15.7760 O.2   516  MET516     -0.2733
    102  CB        26.2590   46.0670   18.4310 C.3   516  MET516      0.0400
    103  CG        27.4190   47.0280   18.6380 C.3   516  MET516      0.0596
    104  SD        28.7570   46.3160   19.6390 S.3   516  MET516     -0.1393
    105  CE        30.0180   46.2740   18.4360 C.3   516  MET516      0.0692
    106  N         26.1980   45.8520   15.3340 N.am  517  PRO517     -0.2718
    107  CA        26.6140   46.1870   13.9450 C.3   517  PRO517      0.1535
    108  C         27.8140   47.1470   13.7680 C.2   517  PRO517      0.2599
    109  O         28.5040   47.0860   12.7190 O.2   517  PRO517     -0.2715
    110  CB        25.3340   46.7820   13.3200 C.3   517  PRO517      0.0310
    111  CG        24.2530   46.2960   14.1910 C.3   517  PRO517      0.0237
    112  CD        24.8190   46.3140   15.6010 C.3   517  PRO517      0.0939
    113  N         28.0410   48.0250   14.7550 N.am  518  THR518     -0.1937
    114  CA        29.0950   49.0600   14.7230 C.3   518  THR518      0.2028
    115  C         29.0180   49.9460   13.4960 C.2   518  THR518      0.2642
    116  O         30.0550   50.4630   13.0740 O.2   518  THR518     -0.2714
    117  CB        30.5760   48.4990   14.7790 C.3   518  THR518      0.1808
    118  OG1       30.8240   47.6200   13.6800 O.3   518  THR518     -0.2208
    119  CG2       30.8650   47.6510   15.9970 C.3   518  THR518      0.0379
    120  N         27.8300   50.1460   12.9300 N.am  519  ALA519     -0.1963
    121  CA        27.7240   50.7980   11.6140 C.3   519  ALA519      0.1728
    122  C         28.4690   52.1250   11.4870 C.2   519  ALA519      0.2617
    123  O         29.3120   52.2510   10.6160 O.2   519  ALA519     -0.2715
    124  CB        26.2570   50.9030   11.1510 C.3   519  ALA519      0.0334
    125  N         28.2160   53.0950   12.3610 N.am  520  SER520     -0.1936
    126  CA        29.0480   54.3340   12.4250 C.3   520  SER520      0.2055
    127  C         30.3290   54.2660   13.2790 C.2   520  SER520      0.2643
    128  O         31.3010   54.9390   12.9550 O.2   520  SER520     -0.2714
    129  CB        28.2200   55.5610   12.8710 C.3   520  SER520      0.2130
    130  OG        26.8210   55.3010   12.7640 O.3   520  SER520     -0.2179
    131  N         30.3530   53.5020   14.3660 N.am  521  THR521     -0.1950
    132  CA        31.5760   53.4360   15.1850 C.3   521  THR521      0.1897
    133  C         32.7190   52.6270   14.5480 C.2   521  THR521      0.2313
    134  O         33.8790   52.7510   14.9630 O.2   521  THR521     -0.2863
    135  CB        31.3230   52.9270   16.6220 C.3   521  THR521      0.1794
    136  OG1       30.5430   51.7240   16.5980 O.3   521  THR521     -0.2208
    137  CG2       30.5120   53.9340   17.4560 C.3   521  THR521      0.0378
@<TRIPOS>BOND
     1   123   122    2
     2   124   121    1
     3   122   121    1
     4   122   125   am
     5   121   120    1
     6    39    40    1
     7    40    41    1
     8    40    43    1
     9    51    50    1
    10    51    52    1
    11    41    42    2
    12   125   126    1
    13   126   129    1
    14   126   127    1
    15   109   108    2
    16    54    52   am
    17    54    55    1
    18   130   129    1
    19   120   115   am
    20   128   127    2
    21   116   115    2
    22    52    53    2
    23   127   131   am
    24    43    44    1
    25   110   107    1
    26   110   111    1
    27    55    58    1
    28    55    56    1
    29   115   114    1
    30   118   117    1
    31   108   107    1
    32   108   113   am
    33   107   106    1
    34    44    45    1
    35   111   112    1
    36   131   132    1
    37   133   134    2
    38   133   132    1
    39   114   113    1
    40   114   117    1
    41   117   119    1
    42    56    57    2
    43    73    72    1
    44    70    69    2
    45   132   135    1
    46    80    79    1
    47   106   112    1
    48   106   100   am
    49    78    77    2
    50    79    76    1
    51    45    46    1
    52    76    77    1
    53    76    75    1
    54    72    74    1
    55    72    71    1
    56   101   100    2
    57    69    75   am
    58    69    68    1
    59    46    47    2
    60   100    99    1
    61   136   135    1
    62   135   137    1
    63    68    71    1
    64    68    67    1
    65    11    10    1
    66    47    49    1
    67    47    48    1
    68    99    98    1
    69    99   102    1
    70    62    61    2
    71    10     7    1
    72    89    87   ar
    73    67    61   am
    74   102   103    1
    75   105   104    1
    76    81    82    1
    77    61    60    1
    78   103   104    1
    79    87    88   ar
    80    87    86    1
    81    36    35    1
    82    36    37    1
    83    85    82    1
    84    85    86    1
    85    82    83    1
    86     7     6    1
    87     7     8    1
    88    66    64   am
    89     6     3   am
    90    34    33    2
    91    65    64    2
    92    35    33   am
    93    60    59    1
    94    60    63    1
    95    37    38    2
    96    64    63    1
    97    33    32    1
    98     8     9    2
    99     8    12   am
   100    31    32    1
   101    18    12    1
   102    18    17    1
   103    83    84    2
   104     3     2    1
   105     3     4    2
   106    12    13    1
   107    97    95    1
   108     2     5    1
   109     2     1    1
   110    22    21    2
   111    17    16    1
   112    23    24    1
   113    23    20    1
   114    13    16    1
   115    13    14    1
   116    30    29    1
   117    21    20    1
   118    21    25   am
   119    95    94    1
   120    95    96    1
   121    20    19    1
   122    94    91    1
   123    26    29    1
   124    26    25    1
   125    26    27    1
   126    14    15    2
   127    92    93    2
   128    92    91    1
   129    27    28    2
   130    91    90    1
