@<TRIPOS>MOLECULE
tmp/2cvyA00.pdb
 180 174 0 0 0
SMALL
GASTEIGER

@<TRIPOS>ATOM
      1  N          7.7720   23.4240    9.6260 N.3   243  VAL243     -0.1231
      2  CA         8.1050   23.8170    8.2630 C.3   243  VAL243      0.1692
      3  C          8.9350   22.7090    7.6490 C.2   243  VAL243      0.2591
      4  O          8.6830   22.2950    6.5260 O.2   243  VAL243     -0.2718
      5  CB         8.8800   25.1540    8.2310 C.3   243  VAL243      0.0266
      6  CG1        9.4180   25.4340    6.8580 C.3   243  VAL243      0.0020
      7  CG2        7.9770   26.2980    8.6600 C.3   243  VAL243      0.0020
      8  N          9.9160   22.2300    8.4160 N.am  244  GLU244     -0.1979
      9  CA        10.8080   21.1820    7.9920 C.3   244  GLU244      0.1602
     10  C         10.0320   19.9120    7.6670 C.2   244  GLU244      0.2287
     11  O         10.2410   19.3070    6.6270 O.2   244  GLU244     -0.2864
     12  CB        11.7950   20.9010    9.1110 C.3   244  GLU244      0.0415
     13  CG        12.8770   19.9200    8.7440 C.3   244  GLU244      0.1163
     14  CD        14.0050   19.8870    9.7490 C.2   244  GLU244      0.3649
     15  OE1       13.7550   20.0810   10.9830 O.co2 244  GLU244     -0.2457
     16  OE2       15.1440   19.6470    9.2870 O.co2 244  GLU244     -0.2457
     17  N          4.3830   25.6630    5.6180 N.3   287  GLN287     -0.1245
     18  CA         5.2020   26.0800    4.5020 C.3   287  GLN287      0.1566
     19  C          4.6300   27.2460    3.7100 C.2   287  GLN287      0.2260
     20  O          5.3810   27.9290    2.9960 O.2   287  GLN287     -0.2867
     21  CB         5.5590   24.8920    3.5980 C.3   287  GLN287      0.0367
     22  CG         6.7920   24.1220    4.0810 C.3   287  GLN287      0.0905
     23  CD         7.2570   23.0380    3.0990 C.2   287  GLN287      0.2608
     24  OE1        6.9370   23.0890    1.8950 O.2   287  GLN287     -0.2717
     25  NE2        8.0180   22.0630    3.6110 N.am  287  GLN287     -0.0878
     26  N          6.0730   30.0900    5.7190 N.3   290  TRP290     -0.1227
     27  CA         7.4930   30.0190    5.3830 C.3   290  TRP290      0.1737
     28  C          7.7560   30.6730    4.0460 C.2   290  TRP290      0.2595
     29  O          8.5300   31.6290    3.9880 O.2   290  TRP290     -0.2718
     30  CB         7.9990   28.5670    5.3720 C.3   290  TRP290      0.0564
     31  CG         9.4670   28.4660    5.1540 C.ar  290  TRP290      0.0003
     32  CD1       10.1110   28.0240    4.0290 C.ar  290  TRP290      0.0946
     33  CD2       10.4960   28.8400    6.0880 C.ar  290  TRP290      0.0152
     34  NE1       11.4740   28.0910    4.2100 N.ar  290  TRP290     -0.2442
     35  CE2       11.7430   28.5810    5.4620 C.ar  290  TRP290      0.0810
     36  CE3       10.4900   29.3830    7.3860 C.ar  290  TRP290      0.0012
     37  CZ2       12.9610   28.8490    6.0840 C.ar  290  TRP290      0.0191
     38  CZ3       11.6960   29.6220    8.0060 C.ar  290  TRP290      0.0001
     39  CH2       12.9180   29.3600    7.3540 C.ar  290  TRP290      0.0015
     40  N          7.0900   30.1920    2.9900 N.am  291  TYR291     -0.1976
     41  CA         7.1790   30.7880    1.6470 C.3   291  TYR291      0.1639
     42  C          7.0340   32.3260    1.6290 C.2   291  TYR291      0.2290
     43  O          7.8460   33.0370    1.0270 O.2   291  TYR291     -0.2864
     44  CB         6.1400   30.1780    0.6920 C.3   291  TYR291      0.0560
     45  CG         6.2750   30.7570   -0.7130 C.ar  291  TYR291     -0.0198
     46  CD1        5.5450   31.8940   -1.1060 C.ar  291  TYR291     -0.0009
     47  CD2        7.1750   30.2000   -1.6410 C.ar  291  TYR291     -0.0009
     48  CE1        5.7090   32.4440   -2.3800 C.ar  291  TYR291      0.0417
     49  CE2        7.3300   30.7440   -2.9300 C.ar  291  TYR291      0.0417
     50  CZ         6.5980   31.8590   -3.2840 C.ar  291  TYR291      0.1957
     51  OH         6.7460   32.3930   -4.5520 O.3   291  TYR291     -0.2866
     52  N         10.1890   34.1460    3.1090 N.3   294  LEU294     -0.1245
     53  CA        11.3680   34.2150    2.2600 C.3   294  LEU294      0.1561
     54  C         11.1920   35.1230    1.0780 C.2   294  LEU294      0.2260
     55  O         12.1580   35.7110    0.6210 O.2   294  LEU294     -0.2867
     56  CB        11.7840   32.8280    1.7710 C.3   294  LEU294      0.0270
     57  CG        11.9490   31.6530    2.7200 C.3   294  LEU294      0.0019
     58  CD1       12.7950   30.6770    1.9840 C.3   294  LEU294      0.0001
     59  CD2       12.5890   31.9980    4.0400 C.3   294  LEU294      0.0001
     60  N         31.6550   31.3450    1.4710 N.3   585  SER585     -0.1202
     61  CA        30.5250   30.4830    1.7680 C.3   585  SER585      0.2020
     62  C         29.8310   30.9760    3.0390 C.2   585  SER585      0.2619
     63  O         30.4870   31.2910    4.0450 O.2   585  SER585     -0.2717
     64  CB        30.9860   29.0290    1.9340 C.3   585  SER585      0.2103
     65  OG        30.0700   28.2870    2.7200 O.3   585  SER585     -0.2182
     66  N         28.5060   31.0540    2.9770 N.am  586  GLN586     -0.1965
     67  CA        27.7070   31.5010    4.0960 C.3   586  GLN586      0.1733
     68  C         27.6400   30.4230    5.1580 C.2   586  GLN586      0.2616
     69  O         27.2190   30.6800    6.2850 O.2   586  GLN586     -0.2715
     70  CB        26.3120   31.9040    3.6190 C.3   586  GLN586      0.0408
     71  CG        26.3160   33.1160    2.6830 C.3   586  GLN586      0.0908
     72  CD        27.0940   34.3000    3.2600 C.2   586  GLN586      0.2608
     73  OE1       28.1730   34.6490    2.7720 O.2   586  GLN586     -0.2717
     74  NE2       26.5530   34.9010    4.3020 N.am  586  GLN586     -0.0878
     75  N         28.0890   29.2240    4.7940 N.am  587  LYS587     -0.1977
     76  CA        28.1780   28.0950    5.7060 C.3   587  LYS587      0.1596
     77  C         29.3480   28.3270    6.6360 C.2   587  LYS587      0.2287
     78  O         29.2850   27.9970    7.8170 O.2   587  LYS587     -0.2864
     79  CB        28.3490   26.7920    4.9220 C.3   587  LYS587      0.0298
     80  CG        28.2870   25.5170    5.7500 C.3   587  LYS587      0.0038
     81  CD        27.7110   24.3460    4.9240 C.3   587  LYS587      0.0206
     82  CE        27.6870   23.0540    5.7430 C.3   587  LYS587      0.1093
     83  NZ        26.9110   21.9360    5.1000 N.3   587  LYS587     -0.1314
     84  N         28.3210   31.0960    9.0090 N.3   590  ILE590     -0.1245
     85  CA        27.4650   30.5900   10.0950 C.3   590  ILE590      0.1561
     86  C         28.2130   29.7080   11.0990 C.2   590  ILE590      0.2260
     87  O         27.9030   29.7180   12.3000 O.2   590  ILE590     -0.2867
     88  CB        26.1980   29.8820    9.5100 C.3   590  ILE590      0.0252
     89  CG1       25.2400   30.9360    8.9180 C.3   590  ILE590      0.0019
     90  CG2       25.4910   28.9210   10.5540 C.3   590  ILE590      0.0019
     91  CD1       24.1590   30.3870    7.9530 C.3   590  ILE590      0.0001
     92  N         23.6070   36.5940   -0.0130 N.3   610  LEU610     -0.1245
     93  CA        23.3650   35.5950   -1.0610 C.3   610  LEU610      0.1561
     94  C         23.5610   36.1740   -2.4470 C.2   610  LEU610      0.2260
     95  O         22.8830   37.1390   -2.8260 O.2   610  LEU610     -0.2867
     96  CB        21.9710   34.9740   -0.9600 C.3   610  LEU610      0.0270
     97  CG        21.8470   33.6110   -0.2680 C.3   610  LEU610      0.0019
     98  CD1       20.4020   33.0940   -0.3230 C.3   610  LEU610      0.0001
     99  CD2       22.7980   32.5830   -0.8730 C.3   610  LEU610      0.0001
    100  N         17.8680   31.8310   -4.1640 N.3   614  THR614     -0.1203
    101  CA        16.7440   30.9850   -4.5160 C.3   614  THR614      0.1994
    102  C         16.0570   30.6540   -3.2040 C.2   614  THR614      0.2618
    103  O         16.6800   30.7490   -2.1560 O.2   614  THR614     -0.2717
    104  CB        17.1970   29.6850   -5.2500 C.3   614  THR614      0.1784
    105  OG1       17.6930   28.7140   -4.3170 O.3   614  THR614     -0.2211
    106  CG2       18.3930   29.9390   -6.1900 C.3   614  THR614      0.0376
    107  N         14.7820   30.2760   -3.2620 N.am  615  MET615     -0.1965
    108  CA        14.0120   29.9210   -2.0730 C.3   615  MET615      0.1736
    109  C         14.6520   28.7270   -1.3550 C.2   615  MET615      0.2617
    110  O         14.5610   28.6190   -0.1330 O.2   615  MET615     -0.2715
    111  CB        12.5370   29.6440   -2.4370 C.3   615  MET615      0.0427
    112  CG        11.5290   30.8220   -2.2650 C.3   615  MET615      0.0599
    113  SD        12.1080   32.4760   -2.7760 S.3   615  MET615     -0.1393
    114  CE        10.5810   33.4020   -2.9900 C.3   615  MET615      0.0692
    115  N         15.3230   27.8540   -2.1130 N.am  616  GLY616     -0.1940
    116  CA        16.0160   26.6710   -1.5670 C.3   616  GLY616      0.2014
    117  C         17.3100   26.9590   -0.8200 C.2   616  GLY616      0.2638
    118  O         17.5570   26.3880    0.2340 O.2   616  GLY616     -0.2714
    119  N         18.1450   27.8240   -1.3830 N.am  617  LYS617     -0.1977
    120  CA        19.3630   28.3320   -0.7180 C.3   617  LYS617      0.1596
    121  C         19.0590   29.0610    0.5950 C.2   617  LYS617      0.2287
    122  O         19.7740   28.9090    1.5840 O.2   617  LYS617     -0.2864
    123  CB        20.1220   29.3190   -1.6270 C.3   617  LYS617      0.0298
    124  CG        20.9260   28.7160   -2.7660 C.3   617  LYS617      0.0038
    125  CD        21.7800   29.8170   -3.4040 C.3   617  LYS617      0.0206
    126  CE        22.6430   29.2960   -4.5320 C.3   617  LYS617      0.1093
    127  NZ        23.6490   30.3190   -4.9660 N.3   617  LYS617     -0.1314
    128  N         16.2090   28.8520    2.4730 N.3   619  THR619     -0.1203
    129  CA        15.6820   27.8450    3.3950 C.3   619  THR619      0.1994
    130  C         16.7950   27.0600    4.0640 C.2   619  THR619      0.2619
    131  O         16.7110   26.7650    5.2670 O.2   619  THR619     -0.2717
    132  CB        14.7770   26.8530    2.6570 C.3   619  THR619      0.1784
    133  OG1       13.6560   27.5340    2.0950 O.3   619  THR619     -0.2211
    134  CG2       14.1220   25.8930    3.6320 C.3   619  THR619      0.0376
    135  N         17.8150   26.6980    3.2820 N.am  620  SER620     -0.1937
    136  CA        18.9510   25.8980    3.7650 C.3   620  SER620      0.2055
    137  C         19.8390   26.7090    4.6780 C.2   620  SER620      0.2642
    138  O         20.2980   26.2250    5.6980 O.2   620  SER620     -0.2714
    139  CB        19.8090   25.4220    2.5930 C.3   620  SER620      0.2130
    140  OG        19.4100   24.1430    2.1940 O.3   620  SER620     -0.2179
    141  N         20.1010   27.9380    4.2510 N.am  621  MET621     -0.1976
    142  CA        20.8460   28.9070    5.0310 C.3   621  MET621      0.1605
    143  C         20.1370   29.1630    6.3740 C.2   621  MET621      0.2287
    144  O         20.7850   29.1410    7.4170 O.2   621  MET621     -0.2864
    145  CB        21.0600   30.1740    4.1980 C.3   621  MET621      0.0413
    146  CG        22.0910   31.1320    4.7520 C.3   621  MET621      0.0598
    147  SD        22.3400   32.5310    3.6460 S.3   621  MET621     -0.1393
    148  CE        20.7680   33.4000    3.7390 C.3   621  MET621      0.0692
    149  N         17.8940   27.0230    8.0380 N.3   623  PHE623     -0.1227
    150  CA        17.8670   25.7990    8.8610 C.3   623  PHE623      0.1736
    151  C         19.2260   25.4210    9.3800 C.2   623  PHE623      0.2595
    152  O         19.3340   24.9370   10.5110 O.2   623  PHE623     -0.2718
    153  CB        17.1690   24.6300    8.1550 C.3   623  PHE623      0.0547
    154  CG        15.6600   24.7110    8.2370 C.ar  623  PHE623     -0.0202
    155  CD1       14.9440   25.5720    7.3950 C.ar  623  PHE623     -0.0042
    156  CD2       14.9660   23.9820    9.1980 C.ar  623  PHE623     -0.0042
    157  CE1       13.5660   25.6690    7.4990 C.ar  623  PHE623     -0.0003
    158  CE2       13.5830   24.0830    9.2970 C.ar  623  PHE623     -0.0003
    159  CZ        12.8890   24.9250    8.4410 C.ar  623  PHE623     -0.0000
    160  N         20.2570   25.7110    8.5840 N.am  624  TYR624     -0.1976
    161  CA        21.6580   25.5750    9.0050 C.3   624  TYR624      0.1639
    162  C         22.0160   26.3750   10.2910 C.2   624  TYR624      0.2290
    163  O         22.4570   25.7820   11.2900 O.2   624  TYR624     -0.2864
    164  CB        22.6120   25.8960    7.8450 C.3   624  TYR624      0.0560
    165  CG        24.0070   25.4170    8.1240 C.ar  624  TYR624     -0.0198
    166  CD1       24.2940   24.0460    8.2160 C.ar  624  TYR624     -0.0009
    167  CD2       25.0330   26.3250    8.3690 C.ar  624  TYR624     -0.0009
    168  CE1       25.5770   23.6060    8.5290 C.ar  624  TYR624      0.0417
    169  CE2       26.3140   25.9020    8.6690 C.ar  624  TYR624      0.0417
    170  CZ        26.5860   24.5450    8.7520 C.ar  624  TYR624      0.1957
    171  OH        27.8760   24.1330    9.0490 O.3   624  TYR624     -0.2866
    172  N         19.8580   24.9220   13.2430 N.3   627  LYS627     -0.1245
    173  CA        20.3790   23.6660   13.8340 C.3   627  LYS627      0.1561
    174  C         21.7430   23.8950   14.5210 C.2   627  LYS627      0.2260
    175  O         22.1640   23.1040   15.3590 O.2   627  LYS627     -0.2867
    176  CB        20.5170   22.5650   12.7680 C.3   627  LYS627      0.0271
    177  CG        19.1780   22.1110   12.0980 C.3   627  LYS627      0.0035
    178  CD        18.7850   20.6790   12.5220 C.3   627  LYS627      0.0206
    179  CE        17.4350   20.2540   11.8960 C.3   627  LYS627      0.1093
    180  NZ        17.3130   20.7300   10.4950 N.3   627  LYS627     -0.1314
@<TRIPOS>BOND
     1   106   104    1
     2   104   101    1
     3   104   105    1
     4   127   126    1
     5    51    50    1
     6   126   125    1
     7   101   100    1
     8   101   102    1
     9   125   124    1
    10    50    49   ar
    11    50    48   ar
    12   107   102   am
    13   107   108    1
    14   102   103    2
    15   114   113    1
    16    49    47   ar
    17    95    94    2
    18   113   112    1
    19   124   123    1
    20    94    93    1
    21   111   112    1
    22   111   108    1
    23    48    46   ar
    24   115   116    1
    25   115   109   am
    26   108   109    1
    27    47    45   ar
    28   123   120    1
    29   116   117    1
    30   119   117   am
    31   119   120    1
    32   109   110    2
    33    46    45   ar
    34    93    96    1
    35    93    92    1
    36    96    97    1
    37    99    97    1
    38   117   118    2
    39   120   121    1
    40    45    44    1
    41    98    97    1
    42   121   122    2
    43    55    54    2
    44    44    41    1
    45    43    42    2
    46    54    53    1
    47    60    61    1
    48    42    41    1
    49    41    40    1
    50    61    64    1
    51    61    62    1
    52    56    53    1
    53    56    57    1
    54    24    23    2
    55    64    65    1
    56    58    57    1
    57   133   132    1
    58   140   139    1
    59    53    52    1
    60   128   129    1
    61   139   136    1
    62   132   129    1
    63   132   134    1
    64    71    72    1
    65    71    70    1
    66    57    59    1
    67    73    72    2
    68    66    62   am
    69    66    67    1
    70    40    28   am
    71    20    19    2
    72    62    63    2
    73    23    25   am
    74    23    22    1
    75    72    74   am
    76   135   136    1
    77   135   130   am
    78   129   130    1
    79    21    22    1
    80    21    18    1
    81    70    67    1
    82   147   148    1
    83   147   146    1
    84    19    18    1
    85   136   137    1
    86    29    28    2
    87    32    34   ar
    88    32    31   ar
    89    28    27    1
    90   130   131    2
    91    67    68    1
    92   145   146    1
    93   145   142    1
    94    34    35   ar
    95   141   137   am
    96   141   142    1
    97    18    17    1
    98   137   138    2
    99    75    68   am
   100    75    76    1
   101    79    76    1
   102    79    80    1
   103    81    82    1
   104    81    80    1
   105   142   143    1
   106    83    82    1
   107    31    30    1
   108    31    33   ar
   109    68    69    2
   110    30    27    1
   111    27    26    1
   112    35    37   ar
   113    35    33   ar
   114    76    77    1
   115    37    39   ar
   116    33    36   ar
   117   143   144    2
   118     4     3    2
   119    11    10    2
   120    77    78    2
   121     6     5    1
   122    39    38   ar
   123    36    38   ar
   124   155   157   ar
   125   155   154   ar
   126   157   159   ar
   127     3     2    1
   128     3     8   am
   129    10     9    1
   130   164   165    1
   131   164   161    1
   132    91    89    1
   133     9     8    1
   134     9    12    1
   135   149   150    1
   136   165   166   ar
   137   165   167   ar
   138   153   154    1
   139   153   150    1
   140   166   168   ar
   141     5     2    1
   142     5     7    1
   143   154   156   ar
   144     2     1    1
   145   167   169   ar
   146   159   158   ar
   147   168   170   ar
   148   160   161    1
   149   160   151   am
   150   169   170   ar
   151    13    12    1
   152    13    14    1
   153   170   171    1
   154   150   151    1
   155    89    88    1
   156   161   162    1
   157    84    85    1
   158   156   158   ar
   159    16    14   ar
   160   151   152    2
   161    88    85    1
   162    88    90    1
   163    14    15   ar
   164    85    86    1
   165   162   163    2
   166   180   179    1
   167    86    87    2
   168   179   178    1
   169   177   178    1
   170   177   176    1
   171   176   173    1
   172   172   173    1
   173   173   174    1
   174   174   175    2
