@<TRIPOS>MOLECULE
tmp/2cvyA01.pdb
 115 110 0 0 0
SMALL
GASTEIGER

@<TRIPOS>ATOM
      1  N         -2.9260   45.0760   26.1380 N.3   136  ASP136     -0.1225
      2  CA        -3.8200   45.0370   24.9640 C.3   136  ASP136      0.1805
      3  C         -5.0690   45.9600   25.0700 C.2   136  ASP136      0.2598
      4  O         -6.2060   45.5170   25.0270 O.2   136  ASP136     -0.2718
      5  CB        -4.2270   43.5920   24.7050 C.3   136  ASP136      0.1424
      6  CG        -4.9630   43.4180   23.4110 C.2   136  ASP136      0.3668
      7  OD1       -5.7380   42.4580   23.3320 O.co2 136  ASP136     -0.2456
      8  OD2       -4.8600   44.1730   22.4320 O.co2 136  ASP136     -0.2456
      9  N         -4.8310   47.2580   25.2060 N.am  137  SER137     -0.1938
     10  CA        -5.8880   48.2110   25.4300 C.3   137  SER137      0.2055
     11  C         -5.4030   49.4990   24.8480 C.2   137  SER137      0.2643
     12  O         -4.1900   49.6920   24.7270 O.2   137  SER137     -0.2714
     13  CB        -6.1630   48.3860   26.9250 C.3   137  SER137      0.2130
     14  OG        -4.9790   48.7430   27.6220 O.3   137  SER137     -0.2179
     15  N         -6.3390   50.3700   24.4720 N.am  138  ILE138     -0.1963
     16  CA        -6.0430   51.7720   24.1030 C.3   138  ILE138      0.1727
     17  C         -5.1120   52.4630   25.1150 C.2   138  ILE138      0.2616
     18  O         -4.1710   53.1670   24.7400 O.2   138  ILE138     -0.2715
     19  CB        -7.3770   52.5840   23.9280 C.3   138  ILE138      0.0290
     20  CG1       -8.1980   52.0380   22.7460 C.3   138  ILE138      0.0022
     21  CG2       -7.1130   54.0890   23.7370 C.3   138  ILE138      0.0023
     22  CD1       -7.4890   52.0810   21.3450 C.3   138  ILE138      0.0001
     23  N         -5.3920   52.2580   26.3940 N.am  139  GLU139     -0.1977
     24  CA        -4.6030   52.8130   27.4630 C.3   139  GLU139      0.1602
     25  C         -3.1370   52.3720   27.3080 C.2   139  GLU139      0.2287
     26  O         -2.2090   53.2310   27.2930 O.2   139  GLU139     -0.2864
     27  CB        -5.1750   52.3210   28.7880 C.3   139  GLU139      0.0415
     28  CG        -6.5050   52.9690   29.2230 C.3   139  GLU139      0.1163
     29  CD        -7.8060   52.3600   28.6370 C.2   139  GLU139      0.3649
     30  OE1       -8.8770   52.8310   29.0800 O.co2 139  GLU139     -0.2457
     31  OE2       -7.8340   51.4610   27.7510 O.co2 139  GLU139     -0.2457
     32  N         -1.5860   50.7620   24.7430 N.3   141  ILE141     -0.1245
     33  CA        -1.0160   51.1590   23.4580 C.3   141  ILE141      0.1561
     34  C         -0.5270   52.6170   23.4670 C.2   141  ILE141      0.2260
     35  O          0.5980   52.9020   22.9850 O.2   141  ILE141     -0.2867
     36  CB        -2.0560   50.9440   22.3600 C.3   141  ILE141      0.0252
     37  CG1       -2.3100   49.4410   22.1420 C.3   141  ILE141      0.0019
     38  CG2       -1.6440   51.6300   21.0620 C.3   141  ILE141      0.0019
     39  CD1       -3.6050   49.1860   21.4070 C.3   141  ILE141      0.0001
     40  N         -1.0380   42.1340   21.3070 N.3   165  ILE165     -0.1231
     41  CA        -2.1160   42.9070   20.7480 C.3   165  ILE165      0.1692
     42  C         -2.9670   41.9650   19.9070 C.2   165  ILE165      0.2591
     43  O         -2.4430   41.2600   19.0280 O.2   165  ILE165     -0.2718
     44  CB        -1.5670   44.0550   19.9060 C.3   165  ILE165      0.0266
     45  CG1       -0.7770   45.0640   20.7770 C.3   165  ILE165      0.0019
     46  CG2       -2.6890   44.7160   19.0690 C.3   165  ILE165      0.0020
     47  CD1       -1.5420   45.6760   21.9460 C.3   165  ILE165      0.0001
     48  N         -4.2700   41.9630   20.1820 N.am  166  ARG166     -0.1980
     49  CA        -5.2330   41.1180   19.4600 C.3   166  ARG166      0.1597
     50  C         -5.3270   41.4610   17.9840 C.2   166  ARG166      0.2287
     51  O         -5.2780   42.6330   17.5920 O.2   166  ARG166     -0.2864
     52  CB        -6.6190   41.1650   20.1160 C.3   166  ARG166      0.0334
     53  CG        -7.3480   42.5350   19.9860 C.3   166  ARG166      0.0492
     54  CD        -8.6210   42.6560   20.8330 C.3   166  ARG166      0.2205
     55  NE        -8.2900   42.7600   22.2430 N.pl3 166  ARG166     -0.0865
     56  CZ        -9.1610   43.0440   23.2070 C.cat 166  ARG166      0.5346
     57  NH1      -10.4380   43.2390   22.9090 N.pl3 166  ARG166      0.1354
     58  NH2       -8.7490   43.1600   24.4710 N.pl3 166  ARG166      0.1354
     59  N        -12.7910   40.4910   18.8780 N.3   171  TYR171     -0.1227
     60  CA       -13.9050   41.0670   19.5670 C.3   171  TYR171      0.1736
     61  C        -13.4550   42.1480   20.5530 C.2   171  TYR171      0.2595
     62  O        -12.4040   42.0400   21.1630 O.2   171  TYR171     -0.2718
     63  CB       -14.6330   39.9100   20.2670 C.3   171  TYR171      0.0548
     64  CG       -15.6960   40.3060   21.2370 C.ar  171  TYR171     -0.0200
     65  CD1      -15.4690   40.2520   22.6060 C.ar  171  TYR171     -0.0009
     66  CD2      -16.9330   40.7460   20.7890 C.ar  171  TYR171     -0.0009
     67  CE1      -16.4590   40.6260   23.5080 C.ar  171  TYR171      0.0417
     68  CE2      -17.9280   41.1190   21.6820 C.ar  171  TYR171      0.0417
     69  CZ       -17.6850   41.0530   23.0340 C.ar  171  TYR171      0.1957
     70  OH       -18.6860   41.4220   23.9110 O.3   171  TYR171     -0.2866
     71  N        -14.2590   43.1950   20.6950 N.am  172  ILE172     -0.1966
     72  CA       -14.0150   44.2490   21.6930 C.3   172  ILE172      0.1727
     73  C        -15.3030   44.4820   22.4860 C.2   172  ILE172      0.2616
     74  O        -16.3600   44.7430   21.9030 O.2   172  ILE172     -0.2715
     75  CB       -13.5300   45.5780   21.0100 C.3   172  ILE172      0.0290
     76  CG1      -12.3440   45.3310   20.0740 C.3   172  ILE172      0.0022
     77  CG2      -13.1920   46.6660   22.0460 C.3   172  ILE172      0.0023
     78  CD1      -12.1430   46.4230   19.0680 C.3   172  ILE172      0.0001
     79  N        -15.2110   44.4090   23.8090 N.am  173  ALA173     -0.1977
     80  CA       -16.3820   44.5010   24.6820 C.3   173  ALA173      0.1597
     81  C        -17.0040   45.8930   24.6870 C.2   173  ALA173      0.2287
     82  O        -16.3090   46.9070   24.7550 O.2   173  ALA173     -0.2864
     83  CB       -16.0430   44.0490   26.1000 C.3   173  ALA173      0.0319
     84  N        -18.7070   47.0990   22.1650 N.3   175  THR175     -0.1218
     85  CA       -18.8540   47.6140   20.8150 C.3   175  THR175      0.1862
     86  C        -19.2480   46.5790   19.7650 C.2   175  THR175      0.2287
     87  O        -18.8690   45.4090   19.8220 O.2   175  THR175     -0.2866
     88  CB       -17.5970   48.4620   20.3480 C.3   175  THR175      0.1770
     89  OG1      -16.3670   47.7750   20.6500 O.3   175  THR175     -0.2211
     90  CG2      -17.4760   49.7630   21.1520 C.3   175  THR175      0.0375
     91  N        -14.9600   45.3130   15.7970 N.3   178  THR178     -0.1203
     92  CA       -13.8760   44.3900   16.0420 C.3   178  THR178      0.1994
     93  C        -12.5690   45.1520   15.8430 C.2   178  THR178      0.2619
     94  O        -12.5400   46.2010   15.1920 O.2   178  THR178     -0.2717
     95  CB       -13.9370   43.2230   15.0440 C.3   178  THR178      0.1784
     96  OG1      -14.1020   43.7410   13.7200 O.3   178  THR178     -0.2211
     97  CG2      -15.1870   42.3700   15.2590 C.3   178  THR178      0.0376
     98  N        -11.4860   44.6160   16.3940 N.am  179  SER179     -0.1937
     99  CA       -10.1790   45.2250   16.2560 C.3   179  SER179      0.2055
    100  C         -9.7220   45.3370   14.8170 C.2   179  SER179      0.2643
    101  O        -10.0540   44.5060   13.9790 O.2   179  SER179     -0.2714
    102  CB        -9.1580   44.4600   17.0720 C.3   179  SER179      0.2130
    103  OG        -7.8720   44.8700   16.7060 O.3   179  SER179     -0.2179
    104  N         -8.9650   46.3970   14.5540 N.am  180  ASN180     -0.1957
    105  CA        -8.2840   46.6460   13.2790 C.3   180  ASN180      0.1819
    106  C         -7.0340   45.7830   13.1570 C.2   180  ASN180      0.2621
    107  O         -6.4930   45.6250   12.0540 O.2   180  ASN180     -0.2715
    108  CB        -7.7780   48.1030   13.2300 C.3   180  ASN180      0.1195
    109  CG        -8.8980   49.1540   13.1830 C.2   180  ASN180      0.2630
    110  OD1       -8.6890   50.2980   13.6630 O.2   180  ASN180     -0.2716
    111  ND2      -10.0700   48.7970   12.5790 N.am  180  ASN180     -0.0877
    112  N         -6.5560   45.2770   14.2980 N.am  181  GLY181     -0.1954
    113  CA        -5.3530   44.4720   14.3650 C.3   181  GLY181      0.1869
    114  C         -4.0970   45.3260   14.4480 C.2   181  GLY181      0.2309
    115  O         -4.1310   46.4730   14.9480 O.2   181  GLY181     -0.2863
@<TRIPOS>BOND
     1   107   106    2
     2   111   109   am
     3   106   105    1
     4   106   112   am
     5   109   108    1
     6   109   110    2
     7   108   105    1
     8   105   104    1
     9    96    95    1
    10   101   100    2
    11   112   113    1
    12   113   114    1
    13   114   115    2
    14   104   100   am
    15   100    99    1
    16    95    97    1
    17    95    92    1
    18    94    93    2
    19    91    92    1
    20    93    92    1
    21    93    98   am
    22    99    98    1
    23    99   102    1
    24   103   102    1
    25    51    50    2
    26    50    49    1
    27    59    60    1
    28    43    42    2
    29    78    76    1
    30    46    44    1
    31    49    52    1
    32    49    48    1
    33    60    63    1
    34    60    61    1
    35    86    87    2
    36    86    85    1
    37    44    41    1
    38    44    45    1
    39    42    48   am
    40    42    41    1
    41    53    52    1
    42    53    54    1
    43    76    75    1
    44    63    64    1
    45    88    89    1
    46    88    85    1
    47    88    90    1
    48    61    71   am
    49    61    62    2
    50    71    72    1
    51    41    40    1
    52    45    47    1
    53    66    64   ar
    54    66    68   ar
    55    85    84    1
    56    54    55    1
    57    75    72    1
    58    75    77    1
    59    38    36    1
    60    64    65   ar
    61    22    20    1
    62    39    37    1
    63    68    69   ar
    64    72    73    1
    65    74    73    2
    66    37    36    1
    67    55    56    2
    68    36    33    1
    69     8     6   ar
    70    73    79   am
    71    65    67   ar
    72    20    19    1
    73    57    56    1
    74    35    34    2
    75    69    67   ar
    76    69    70    1
    77    56    58    1
    78     7     6   ar
    79     6     5    1
    80    33    34    1
    81    33    32    1
    82    21    19    1
    83    79    80    1
    84    19    16    1
    85    16    15    1
    86    16    17    1
    87    15    11   am
    88    80    81    1
    89    80    83    1
    90    81    82    2
    91     5     2    1
    92    12    11    2
    93    18    17    2
    94    11    10    1
    95     2     3    1
    96     2     1    1
    97     4     3    2
    98     3     9   am
    99    17    23   am
   100     9    10    1
   101    10    13    1
   102    23    24    1
   103    13    14    1
   104    26    25    2
   105    25    24    1
   106    24    27    1
   107    31    29   ar
   108    29    30   ar
   109    29    28    1
   110    27    28    1
