@<TRIPOS>MOLECULE
tmp/2cw9A00.pdb
 75 70 0 0 0
SMALL
GASTEIGER

@<TRIPOS>ATOM
      1  N         32.5170   27.6460   68.7340 N.3    61  ILE61      -0.1245
      2  CA        33.7870   27.7570   69.4420 C.3    61  ILE61       0.1561
      3  C         33.6730   28.1550   70.9130 C.2    61  ILE61       0.2260
      4  O         34.6250   28.0000   71.6750 O.2    61  ILE61      -0.2867
      5  CB        34.7450   28.7300   68.7170 C.3    61  ILE61       0.0252
      6  CG1       34.2220   30.1630   68.7930 C.3    61  ILE61       0.0019
      7  CG2       34.8850   28.3180   67.2630 C.3    61  ILE61       0.0019
      8  CD1       35.1820   31.1810   68.2010 C.3    61  ILE61       0.0001
      9  N         28.1960   17.7620   66.5190 N.3    80  LEU80      -0.1245
     10  CA        28.9270   18.9040   67.0680 C.3    80  LEU80       0.1561
     11  C         28.9290   18.9410   68.5990 C.2    80  LEU80       0.2260
     12  O         29.9240   19.3270   69.2200 O.2    80  LEU80      -0.2867
     13  CB        28.3310   20.2170   66.5360 C.3    80  LEU80       0.0270
     14  CG        28.4390   20.4680   65.0260 C.3    80  LEU80       0.0019
     15  CD1       27.6800   21.7380   64.6510 C.3    80  LEU80       0.0001
     16  CD2       29.9050   20.5910   64.6360 C.3    80  LEU80       0.0001
     17  N         40.7280   32.6950   63.1770 N.3   124  LEU124     -0.1245
     18  CA        40.3340   32.3310   64.5340 C.3   124  LEU124      0.1561
     19  C         41.4990   32.1100   65.4870 C.2   124  LEU124      0.2260
     20  O         42.6050   31.7760   65.0710 O.2   124  LEU124     -0.2867
     21  CB        39.5240   31.0280   64.5110 C.3   124  LEU124      0.0270
     22  CG        38.2200   30.9090   63.7300 C.3   124  LEU124      0.0019
     23  CD1       37.7530   29.4610   63.7540 C.3   124  LEU124      0.0001
     24  CD2       37.1710   31.8160   64.3470 C.3   124  LEU124      0.0001
     25  N         44.6480   31.1270   63.4120 N.3   143  LEU143     -0.1245
     26  CA        44.3810   30.0930   62.4100 C.3   143  LEU143      0.1561
     27  C         43.5640   30.6850   61.2630 C.2   143  LEU143      0.2260
     28  O         42.5570   31.3530   61.5000 O.2   143  LEU143     -0.2867
     29  CB        43.5900   28.9350   63.0270 C.3   143  LEU143      0.0270
     30  CG        44.1790   28.1760   64.2160 C.3   143  LEU143      0.0019
     31  CD1       43.1810   27.1260   64.6870 C.3   143  LEU143      0.0001
     32  CD2       45.4920   27.5230   63.8160 C.3   143  LEU143      0.0001
     33  N         36.0320   27.4740   55.1890 N.3   146  TYR146     -0.1241
     34  CA        34.8580   26.6850   55.5620 C.3   146  TYR146      0.1605
     35  C         33.8790   26.4430   54.4110 C.2   146  TYR146      0.2264
     36  O         33.7460   27.2720   53.5090 O.2   146  TYR146     -0.2867
     37  CB        34.0800   27.4020   56.6740 C.3   146  TYR146      0.0534
     38  CG        34.6370   27.2580   58.0720 C.ar  146  TYR146     -0.0201
     39  CD1       34.3840   26.1150   58.8280 C.ar  146  TYR146     -0.0009
     40  CD2       35.4120   28.2730   58.6440 C.ar  146  TYR146     -0.0009
     41  CE1       34.8880   25.9830   60.1260 C.ar  146  TYR146      0.0417
     42  CE2       35.9220   28.1500   59.9380 C.ar  146  TYR146      0.0417
     43  CZ        35.6550   27.0030   60.6710 C.ar  146  TYR146      0.1957
     44  OH        36.1620   26.8730   61.9440 O.3   146  TYR146     -0.2866
     45  N         29.0260   20.7360   57.8080 N.3   168  ILE168     -0.1231
     46  CA        30.1900   21.6060   57.7400 C.3   168  ILE168      0.1692
     47  C         31.4950   20.8340   57.5660 C.2   168  ILE168      0.2593
     48  O         31.6680   19.7430   58.1190 O.2   168  ILE168     -0.2718
     49  CB        30.2810   22.4940   59.0280 C.3   168  ILE168      0.0266
     50  CG1       31.6760   23.1080   59.1670 C.3   168  ILE168      0.0019
     51  CG2       29.9410   21.6680   60.2590 C.3   168  ILE168      0.0020
     52  CD1       31.8100   24.0300   60.3710 C.3   168  ILE168      0.0001
     53  N         32.3970   21.4050   56.7720 N.am  169  SER169     -0.1938
     54  CA        33.7270   20.8440   56.5400 C.3   169  SER169      0.2055
     55  C         34.6710   22.0450   56.5270 C.2   169  SER169      0.2643
     56  O         34.2230   23.1810   56.3560 O.2   169  SER169     -0.2714
     57  CB        33.8030   20.1070   55.1990 C.3   169  SER169      0.2130
     58  OG        33.7760   21.0090   54.1070 O.3   169  SER169     -0.2179
     59  N         35.9690   21.8070   56.7050 N.am  170  ALA170     -0.1963
     60  CA        36.9240   22.9130   56.7270 C.3   170  ALA170      0.1728
     61  C         38.3640   22.4580   56.5890 C.2   170  ALA170      0.2617
     62  O         38.6660   21.2670   56.6570 O.2   170  ALA170     -0.2715
     63  CB        36.7670   23.7070   58.0200 C.3   170  ALA170      0.0334
     64  N         39.2530   23.4280   56.4030 N.am  171  SER171     -0.1936
     65  CA        40.6740   23.1500   56.2670 C.3   171  SER171      0.2055
     66  C         41.4830   24.4240   56.4640 C.2   171  SER171      0.2643
     67  O         41.0430   25.5070   56.0870 O.2   171  SER171     -0.2714
     68  CB        40.9680   22.5730   54.8830 C.3   171  SER171      0.2130
     69  OG        42.3630   22.3890   54.7030 O.3   171  SER171     -0.2179
     70  N         42.6600   24.2920   57.0670 N.am  172  SER172     -0.1949
     71  CA        43.5340   25.4410   57.2820 C.3   172  SER172      0.1924
     72  C         44.1210   25.8030   55.9250 C.2   172  SER172      0.2314
     73  O         44.2390   24.9460   55.0500 O.2   172  SER172     -0.2863
     74  CB        44.6540   25.0920   58.2660 C.3   172  SER172      0.2116
     75  OG        45.4700   24.0540   57.7590 O.3   172  SER172     -0.2180
@<TRIPOS>BOND
     1    36    35    2
     2    58    57    1
     3    35    34    1
     4    69    68    1
     5    68    65    1
     6    73    72    2
     7    33    34    1
     8    57    54    1
     9    34    37    1
    10    72    71    1
    11    67    66    2
    12    65    64    1
    13    65    66    1
    14    56    55    2
    15    64    61   am
    16    66    70   am
    17    55    54    1
    18    55    59   am
    19    54    53    1
    20    61    62    2
    21    61    60    1
    22    37    38    1
    23    59    60    1
    24    60    63    1
    25    53    47   am
    26    70    71    1
    27    71    74    1
    28    47    46    1
    29    47    48    2
    30    46    45    1
    31    46    49    1
    32    75    74    1
    33    38    40   ar
    34    38    39   ar
    35    40    42   ar
    36    39    41   ar
    37    49    50    1
    38    49    51    1
    39    50    52    1
    40    42    43   ar
    41    41    43   ar
    42    43    44    1
    43    27    28    2
    44    27    26    1
    45    26    29    1
    46    26    25    1
    47    29    30    1
    48    17    18    1
    49    22    23    1
    50    22    24    1
    51    22    21    1
    52    32    30    1
    53    30    31    1
    54    21    18    1
    55    18    19    1
    56    16    14    1
    57    15    14    1
    58    14    13    1
    59    20    19    2
    60     9    10    1
    61    13    10    1
    62    10    11    1
    63     7     5    1
    64     8     6    1
    65    11    12    2
    66     5     6    1
    67     5     2    1
    68     1     2    1
    69     2     3    1
    70     3     4    2
