@<TRIPOS>MOLECULE
tmp/2cwhB02.pdb
 103 100 0 0 0
SMALL
GASTEIGER

@<TRIPOS>ATOM
      1  N         58.4600   48.7720   21.5790 N.3    48  HIS48      -0.1241
      2  CA        58.1050   49.1640   20.2230 C.3    48  HIS48       0.1621
      3  C         59.2050   49.9020   19.4930 C.2    48  HIS48       0.2264
      4  O         58.9590   50.6590   18.5500 O.2    48  HIS48      -0.2867
      5  CB        56.7920   49.9430   20.2280 C.3    48  HIS48       0.0745
      6  CG        55.6240   49.0850   20.5950 C.ar   48  HIS48       0.0817
      7  ND1       55.2970   48.8030   21.9040 N.ar   48  HIS48      -0.2268
      8  CD2       54.8120   48.3170   19.8300 C.ar   48  HIS48       0.1154
      9  CE1       54.3390   47.8930   21.9280 C.ar   48  HIS48       0.1986
     10  NE2       54.0280   47.5810   20.6840 N.ar   48  HIS48      -0.2212
     11  N         61.1750   45.3600   17.7330 N.3    52  ARG52      -0.1245
     12  CA        60.1870   44.9490   16.7390 C.3    52  ARG52       0.1563
     13  C         60.7190   44.6660   15.3380 C.2    52  ARG52       0.2260
     14  O         59.9860   44.1440   14.4980 O.2    52  ARG52      -0.2867
     15  CB        59.0840   46.0090   16.6320 C.3    52  ARG52       0.0307
     16  CG        58.2230   46.1580   17.8810 C.3    52  ARG52       0.0489
     17  CD        57.4810   44.8640   18.1990 C.3    52  ARG52       0.2205
     18  NE        56.4870   45.0570   19.2550 N.pl3  52  ARG52      -0.0865
     19  CZ        55.6140   44.1290   19.6370 C.cat  52  ARG52       0.5346
     20  NH1       55.6130   42.9360   19.0570 N.pl3  52  ARG52       0.1354
     21  NH2       54.7280   44.4000   20.5880 N.pl3  52  ARG52       0.1354
     22  N         49.5700   47.7740   12.2960 N.3   120  HIS120     -0.1226
     23  CA        50.2010   48.7200   13.2170 C.3   120  HIS120      0.1752
     24  C         51.0230   47.9060   14.2150 C.2   120  HIS120      0.2596
     25  O         50.4780   47.1360   15.0060 O.2   120  HIS120     -0.2718
     26  CB        49.1210   49.5390   13.9290 C.3   120  HIS120      0.0759
     27  CG        49.6250   50.8010   14.5580 C.ar  120  HIS120      0.0818
     28  ND1       50.6340   50.8160   15.4970 N.ar  120  HIS120     -0.2268
     29  CD2       49.2310   52.0900   14.4090 C.ar  120  HIS120      0.1154
     30  CE1       50.8390   52.0570   15.9020 C.ar  120  HIS120      0.1986
     31  NE2       50.0010   52.8500   15.2570 N.ar  120  HIS120     -0.2212
     32  N         52.3390   48.0880   14.1720 N.am  121  PHE121     -0.1962
     33  CA        53.2620   47.3300   15.0170 C.3   121  PHE121      0.1771
     34  C         54.1100   48.2920   15.8470 C.2   121  PHE121      0.2619
     35  O         55.2910   48.0390   16.0900 O.2   121  PHE121     -0.2715
     36  CB        54.1620   46.5060   14.0820 C.3   121  PHE121      0.0574
     37  CG        54.6800   45.2250   14.6710 C.ar  121  PHE121     -0.0200
     38  CD1       53.8350   44.3530   15.3470 C.ar  121  PHE121     -0.0042
     39  CD2       56.0080   44.8510   14.4690 C.ar  121  PHE121     -0.0042
     40  CE1       54.3040   43.1200   15.8100 C.ar  121  PHE121     -0.0003
     41  CE2       56.4840   43.6250   14.9260 C.ar  121  PHE121     -0.0003
     42  CZ        55.6300   42.7580   15.5970 C.ar  121  PHE121     -0.0000
     43  N         53.5020   49.3810   16.3070 N.am  122  ALA122     -0.1977
     44  CA        54.2600   50.3840   17.0450 C.3   122  ALA122      0.1597
     45  C         53.4970   51.0800   18.1610 C.2   122  ALA122      0.2287
     46  O         52.3590   50.7320   18.4770 O.2   122  ALA122     -0.2864
     47  CB        54.7710   51.4290   16.0580 C.3   122  ALA122      0.0319
     48  N         44.3990   45.4330   18.1410 N.3   144  SER144     -0.1202
     49  CA        45.4780   44.5460   17.7140 C.3   144  SER144      0.2020
     50  C         45.0800   43.0960   17.4520 C.2   144  SER144      0.2618
     51  O         44.2560   42.8310   16.5720 O.2   144  SER144     -0.2717
     52  CB        46.6190   44.6090   18.7340 C.3   144  SER144      0.2103
     53  OG        46.1480   44.3730   20.0480 O.3   144  SER144     -0.2182
     54  N         45.6750   42.1580   18.1900 N.am  145  MET145     -0.1979
     55  CA        45.3670   40.7390   18.0000 C.3   145  MET145      0.1605
     56  C         44.7790   40.1010   19.2520 C.2   145  MET145      0.2287
     57  O         45.1600   40.4300   20.3720 O.2   145  MET145     -0.2864
     58  CB        46.6180   39.9660   17.5640 C.3   145  MET145      0.0413
     59  CG        47.6760   39.7810   18.6440 C.3   145  MET145      0.0598
     60  SD        48.5080   41.3080   19.1010 S.3   145  MET145     -0.1393
     61  CE        49.4450   40.7630   20.5460 C.3   145  MET145      0.0692
     62  N         45.1480   43.9370   22.5760 N.3   160  THR160     -0.1218
     63  CA        45.6680   44.7690   23.6580 C.3   160  THR160      0.1862
     64  C         45.1220   46.1990   23.5450 C.2   160  THR160      0.2287
     65  O         45.2500   47.0070   24.4630 O.2   160  THR160     -0.2866
     66  CB        47.2030   44.7420   23.6650 C.3   160  THR160      0.1770
     67  OG1       47.6930   44.8560   22.3270 O.3   160  THR160     -0.2211
     68  CG2       47.6920   43.4250   24.2550 C.3   160  THR160      0.0375
     69  N         51.4230   45.4690   27.8750 N.3   185  ALA185     -0.1231
     70  CA        51.5200   45.3400   26.4240 C.3   185  ALA185      0.1694
     71  C         52.1110   43.9740   26.0990 C.2   185  ALA185      0.2592
     72  O         53.0230   43.5050   26.7810 O.2   185  ALA185     -0.2718
     73  CB        52.3990   46.4450   25.8490 C.3   185  ALA185      0.0304
     74  N         51.5800   43.3330   25.0630 N.am  186  HIS186     -0.1962
     75  CA        52.0520   42.0160   24.6470 C.3   186  HIS186      0.1787
     76  C         53.5570   42.0470   24.3740 C.2   186  HIS186      0.2620
     77  O         54.2710   41.0850   24.6650 O.2   186  HIS186     -0.2715
     78  CB        51.2940   41.5800   23.3880 C.3   186  HIS186      0.0785
     79  CG        51.6010   40.1870   22.9370 C.ar  186  HIS186      0.0821
     80  ND1       50.8600   39.0940   23.3350 N.ar  186  HIS186     -0.2267
     81  CD2       52.5480   39.7120   22.0930 C.ar  186  HIS186      0.1154
     82  CE1       51.3350   38.0080   22.7520 C.ar  186  HIS186      0.1986
     83  NE2       52.3590   38.3550   21.9940 N.ar  186  HIS186     -0.2212
     84  N         54.0330   43.1580   23.8190 N.am  187  GLY187     -0.1954
     85  CA        55.4480   43.2880   23.5190 C.3   187  GLY187      0.1869
     86  C         56.3080   43.1800   24.7630 C.2   187  GLY187      0.2309
     87  O         57.3970   42.6060   24.7340 O.2   187  GLY187     -0.2863
     88  N         53.4170   38.4620   12.2810 N.3   264  GLN264     -0.1245
     89  CA        53.2320   38.9400   13.6470 C.3   264  GLN264      0.1566
     90  C         52.4060   40.2140   13.7490 C.2   264  GLN264      0.2260
     91  O         51.9660   40.5870   14.8360 O.2   264  GLN264     -0.2867
     92  CB        54.5860   39.2150   14.2960 C.3   264  GLN264      0.0367
     93  CG        55.3720   37.9880   14.6950 C.3   264  GLN264      0.0905
     94  CD        56.6410   38.3660   15.4290 C.2   264  GLN264      0.2608
     95  OE1       56.6400   39.2870   16.2480 O.2   264  GLN264     -0.2717
     96  NE2       57.7270   37.6580   15.1480 N.am  264  GLN264     -0.0878
     97  N         49.1960   42.6980   13.3850 N.3   266  PRO266     -0.2116
     98  CA        47.7390   42.5920   13.3080 C.3   266  PRO266      0.1372
     99  C         47.2960   43.2350   11.9920 C.2   266  PRO266      0.2244
    100  O         47.9100   44.2010   11.5370 O.2   266  PRO266     -0.2868
    101  CB        47.2640   43.4080   14.5110 C.3   266  PRO266      0.0268
    102  CG        48.4200   43.3190   15.4790 C.3   266  PRO266      0.0207
    103  CD        49.6090   43.4800   14.5650 C.3   266  PRO266      0.0892
@<TRIPOS>BOND
     1   100    99    2
     2    99    98    1
     3    88    89    1
     4    22    23    1
     5    23    26    1
     6    23    24    1
     7    98    97    1
     8    98   101    1
     9    97   103    1
    10    89    90    1
    11    89    92    1
    12    90    91    2
    13    26    27    1
    14    36    37    1
    15    36    33    1
    16    32    24   am
    17    32    33    1
    18    24    25    2
    19    92    93    1
    20    29    27   ar
    21    29    31   ar
    22    39    37   ar
    23    39    41   ar
    24    14    13    2
    25   101   102    1
    26    27    28   ar
    27   103   102    1
    28    37    38   ar
    29    93    94    1
    30    41    42   ar
    31    33    34    1
    32    96    94   am
    33    31    30   ar
    34    13    12    1
    35    38    40   ar
    36    94    95    2
    37    28    30   ar
    38    42    40   ar
    39    34    35    2
    40    34    43   am
    41    47    44    1
    42    43    44    1
    43    51    50    2
    44    15    12    1
    45    15    16    1
    46    12    11    1
    47    44    45    1
    48    50    49    1
    49    50    54   am
    50    58    55    1
    51    58    59    1
    52    49    48    1
    53    49    52    1
    54    16    17    1
    55    55    54    1
    56    55    56    1
    57    45    46    2
    58    17    18    1
    59     4     3    2
    60    59    60    1
    61    52    53    1
    62    20    19    1
    63    60    61    1
    64    56    57    2
    65    18    19    2
    66     3     2    1
    67    19    21    1
    68     8     6   ar
    69     8    10   ar
    70     2     5    1
    71     2     1    1
    72     5     6    1
    73     6     7   ar
    74    10     9   ar
    75     7     9   ar
    76    83    81   ar
    77    83    82   ar
    78    81    79   ar
    79    67    66    1
    80    62    63    1
    81    82    80   ar
    82    79    80   ar
    83    79    78    1
    84    78    75    1
    85    85    84    1
    86    85    86    1
    87    64    63    1
    88    64    65    2
    89    63    66    1
    90    66    68    1
    91    84    76   am
    92    76    75    1
    93    76    77    2
    94    75    74    1
    95    87    86    2
    96    74    71   am
    97    73    70    1
    98    71    70    1
    99    71    72    2
   100    70    69    1
