@<TRIPOS>MOLECULE
tmp/2cwwB00.pdb
 178 176 0 0 0
SMALL
GASTEIGER

@<TRIPOS>ATOM
      1  N         65.4250   27.2180   20.2670 N.3   195  TYR195     -0.1241
      2  CA        65.3230   28.1090   19.1160 C.3   195  TYR195      0.1605
      3  C         65.0890   27.3420   17.8170 C.2   195  TYR195      0.2264
      4  O         65.9860   27.1930   16.9940 O.2   195  TYR195     -0.2867
      5  CB        66.5800   28.9680   19.0180 C.3   195  TYR195      0.0534
      6  CG        66.6270   30.0330   20.0810 C.ar  195  TYR195     -0.0201
      7  CD1       67.5620   29.9850   21.1100 C.ar  195  TYR195     -0.0009
      8  CD2       65.7180   31.0880   20.0640 C.ar  195  TYR195     -0.0009
      9  CE1       67.5930   30.9700   22.1050 C.ar  195  TYR195      0.0417
     10  CE2       65.7370   32.0740   21.0480 C.ar  195  TYR195      0.0417
     11  CZ        66.6760   32.0130   22.0680 C.ar  195  TYR195      0.1957
     12  OH        66.6880   32.9930   23.0400 O.3   195  TYR195     -0.2866
     13  N         66.5340   27.9730   14.0290 N.3   198  GLN198     -0.1245
     14  CA        67.8350   27.5390   13.5400 C.3   198  GLN198      0.1566
     15  C         67.9870   26.0270   13.4580 C.2   198  GLN198      0.2260
     16  O         69.1000   25.5160   13.2960 O.2   198  GLN198     -0.2867
     17  CB        68.9230   28.1150   14.4450 C.3   198  GLN198      0.0367
     18  CG        68.8170   29.6120   14.6170 C.3   198  GLN198      0.0905
     19  CD        69.6410   30.3730   13.6100 C.2   198  GLN198      0.2608
     20  OE1       69.6790   30.0280   12.4280 O.2   198  GLN198     -0.2717
     21  NE2       70.3100   31.4240   14.0720 N.am  198  GLN198     -0.0878
     22  N         71.2670   24.2800   11.8600 N.3   202  ARG202     -0.1245
     23  CA        72.1810   23.5330   12.7230 C.3   202  ARG202      0.1563
     24  C         72.4990   22.1990   12.0160 C.2   202  ARG202      0.2260
     25  O         73.6260   21.7150   12.0470 O.2   202  ARG202     -0.2867
     26  CB        71.5530   23.3040   14.1150 C.3   202  ARG202      0.0307
     27  CG        71.5670   24.5570   15.0200 C.3   202  ARG202      0.0489
     28  CD        70.9980   24.2870   16.4160 C.3   202  ARG202      0.2205
     29  NE        69.5690   23.9890   16.3990 N.pl3 202  ARG202     -0.0865
     30  CZ        68.6140   24.8260   16.8080 C.cat 202  ARG202      0.5346
     31  NH1       68.9120   26.0290   17.2780 N.pl3 202  ARG202      0.1354
     32  NH2       67.3450   24.4560   16.7500 N.pl3 202  ARG202      0.1354
     33  N         81.7370   27.8250   18.6700 N.3   215  ASP215     -0.1239
     34  CA        80.3240   28.1940   18.6010 C.3   215  ASP215      0.1674
     35  C         80.0050   29.3470   19.5640 C.2   215  ASP215      0.2266
     36  O         79.7750   29.1230   20.7450 O.2   215  ASP215     -0.2867
     37  CB        79.4810   26.9400   18.9100 C.3   215  ASP215      0.1410
     38  CG        77.9790   27.2150   18.9720 C.2   215  ASP215      0.3668
     39  OD1       77.4940   28.1390   18.2780 O.co2 215  ASP215     -0.2456
     40  OD2       77.2780   26.4770   19.7080 O.co2 215  ASP215     -0.2456
     41  N         77.7830   32.6420   21.1200 N.3   217  PHE217     -0.1227
     42  CA        76.3610   32.9270   21.3600 C.3   217  PHE217      0.1736
     43  C         75.6490   31.5860   21.1570 C.2   217  PHE217      0.2596
     44  O         74.6940   31.4850   20.3890 O.2   217  PHE217     -0.2718
     45  CB        75.8030   33.9220   20.3350 C.3   217  PHE217      0.0547
     46  CG        76.4910   35.2510   20.3210 C.ar  217  PHE217     -0.0202
     47  CD1       77.6100   35.4600   19.5220 C.ar  217  PHE217     -0.0042
     48  CD2       76.0030   36.3080   21.0920 C.ar  217  PHE217     -0.0042
     49  CE1       78.2350   36.7080   19.4830 C.ar  217  PHE217     -0.0003
     50  CE2       76.6190   37.5550   21.0620 C.ar  217  PHE217     -0.0003
     51  CZ        77.7370   37.7590   20.2560 C.ar  217  PHE217     -0.0000
     52  N         76.1120   30.5530   21.8480 N.am  218  SER218     -0.1938
     53  CA        75.5440   29.2270   21.6590 C.3   218  SER218      0.2055
     54  C         74.3450   28.8090   22.4970 C.2   218  SER218      0.2643
     55  O         73.6540   27.8600   22.1330 O.2   218  SER218     -0.2714
     56  CB        76.6320   28.1740   21.8360 C.3   218  SER218      0.2130
     57  OG        76.9450   28.0270   23.2060 O.3   218  SER218     -0.2179
     58  N         74.0870   29.4870   23.6080 N.am  219  TYR219     -0.1959
     59  CA        72.9690   29.0910   24.4590 C.3   219  TYR219      0.1771
     60  C         73.1720   27.6380   24.9470 C.2   219  TYR219      0.2619
     61  O         74.1700   27.3410   25.5970 O.2   219  TYR219     -0.2715
     62  CB        71.6590   29.2090   23.6860 C.3   219  TYR219      0.0574
     63  CG        70.4280   28.9960   24.5340 C.ar  219  TYR219     -0.0198
     64  CD1       70.2490   29.7000   25.7220 C.ar  219  TYR219     -0.0009
     65  CD2       69.4180   28.1250   24.1210 C.ar  219  TYR219     -0.0009
     66  CE1       69.0950   29.5490   26.4770 C.ar  219  TYR219      0.0417
     67  CE2       68.2570   27.9660   24.8650 C.ar  219  TYR219      0.0417
     68  CZ        68.0990   28.6840   26.0440 C.ar  219  TYR219      0.1957
     69  OH        66.9370   28.5640   26.7830 O.3   219  TYR219     -0.2866
     70  N         72.2490   26.7330   24.6260 N.am  220  ALA220     -0.1977
     71  CA        72.3800   25.3440   25.0690 C.3   220  ALA220      0.1597
     72  C         73.2960   24.4900   24.1910 C.2   220  ALA220      0.2287
     73  O         73.2920   23.2650   24.2960 O.2   220  ALA220     -0.2864
     74  CB        70.9950   24.6840   25.1770 C.3   220  ALA220      0.0319
     75  N         73.2510   24.1700   20.7790 N.3   222  GLY222     -0.1210
     76  CA        72.5860   23.5110   19.6650 C.3   222  GLY222      0.1956
     77  C         73.5120   23.2930   18.4740 C.2   222  GLY222      0.2611
     78  O         73.4890   22.2340   17.8270 O.2   222  GLY222     -0.2717
     79  N         74.3210   24.3090   18.1720 N.am  223  PHE223     -0.1976
     80  CA        75.2730   24.2310   17.0700 C.3   223  PHE223      0.1639
     81  C         76.4530   23.3350   17.4580 C.2   223  PHE223      0.2290
     82  O         76.9110   22.5310   16.6490 O.2   223  PHE223     -0.2864
     83  CB        75.7540   25.6440   16.6690 C.3   223  PHE223      0.0560
     84  CG        74.8560   26.3310   15.6560 C.ar  223  PHE223     -0.0200
     85  CD1       74.8280   25.8990   14.3310 C.ar  223  PHE223     -0.0042
     86  CD2       73.9860   27.3570   16.0460 C.ar  223  PHE223     -0.0042
     87  CE1       73.9460   26.4670   13.4110 C.ar  223  PHE223     -0.0003
     88  CE2       73.0970   27.9330   15.1330 C.ar  223  PHE223     -0.0003
     89  CZ        73.0760   27.4860   13.8150 C.ar  223  PHE223     -0.0000
     90  N         80.3030   28.9870   23.6400 N.3   237  VAL237     -0.1231
     91  CA        80.4630   30.2190   24.4320 C.3   237  VAL237      0.1692
     92  C         79.1200   30.9210   24.6440 C.2   237  VAL237      0.2592
     93  O         78.2630   30.8730   23.7660 O.2   237  VAL237     -0.2718
     94  CB        81.4110   31.2000   23.7020 C.3   237  VAL237      0.0266
     95  CG1       81.4220   32.5800   24.3860 C.3   237  VAL237      0.0020
     96  CG2       82.8050   30.5920   23.6460 C.3   237  VAL237      0.0020
     97  N         78.9370   31.5760   25.7940 N.am  238  ASP238     -0.1960
     98  CA        77.6800   32.2760   26.0900 C.3   238  ASP238      0.1840
     99  C         77.8340   33.1390   27.3330 C.2   238  ASP238      0.2623
    100  O         78.8680   33.1100   27.9850 O.2   238  ASP238     -0.2715
    101  CB        76.5500   31.2630   26.3210 C.3   238  ASP238      0.1450
    102  CG        75.1530   31.8980   26.2800 C.2   238  ASP238      0.3671
    103  OD1       74.5690   31.9930   25.1770 O.co2 238  ASP238     -0.2456
    104  OD2       74.6290   32.2960   27.3450 O.co2 238  ASP238     -0.2456
    105  N         76.7950   33.9040   27.6510 N.am  239  SER239     -0.1936
    106  CA        76.7850   34.7770   28.8210 C.3   239  SER239      0.2055
    107  C         76.1410   34.1010   30.0280 C.2   239  SER239      0.2643
    108  O         76.7450   34.0080   31.0910 O.2   239  SER239     -0.2714
    109  CB        76.0240   36.0700   28.5160 C.3   239  SER239      0.2130
    110  OG        76.8540   36.9990   27.8530 O.3   239  SER239     -0.2179
    111  N         74.9040   33.6440   29.8570 N.am  240  SER240     -0.1949
    112  CA        74.1600   32.9780   30.9230 C.3   240  SER240      0.1924
    113  C         74.7510   31.6050   31.2650 C.2   240  SER240      0.2314
    114  O         74.6760   30.6610   30.4650 O.2   240  SER240     -0.2863
    115  CB        72.6940   32.8240   30.5110 C.3   240  SER240      0.2116
    116  OG        71.9120   32.3310   31.5840 O.3   240  SER240     -0.2180
    117  N         81.3990   33.7670   29.2060 N.3   264  ALA264     -0.1231
    118  CA        82.0980   35.0280   28.9480 C.3   264  ALA264      0.1694
    119  C         81.3150   35.9310   28.0060 C.2   264  ALA264      0.2592
    120  O         80.3040   35.5240   27.4320 O.2   264  ALA264     -0.2718
    121  CB        83.4710   34.7590   28.3480 C.3   264  ALA264      0.0304
    122  N         81.7980   37.1630   27.8540 N.am  265  ASN265     -0.1960
    123  CA        81.1830   38.1390   26.9620 C.3   265  ASN265      0.1819
    124  C         81.9200   38.0720   25.6320 C.2   265  ASN265      0.2621
    125  O         83.0700   38.5030   25.5360 O.2   265  ASN265     -0.2715
    126  CB        81.2950   39.5460   27.5450 C.3   265  ASN265      0.1195
    127  CG        80.9860   40.6150   26.5260 C.2   265  ASN265      0.2630
    128  OD1       79.9560   40.5660   25.8590 O.2   265  ASN265     -0.2716
    129  ND2       81.8770   41.5890   26.3960 N.am  265  ASN265     -0.0877
    130  N         81.2460   37.5310   24.6160 N.am  266  ALA266     -0.1963
    131  CA        81.8160   37.3460   23.2780 C.3   266  ALA266      0.1728
    132  C         82.6710   38.4910   22.7290 C.2   266  ALA266      0.2616
    133  O         83.6710   38.2520   22.0500 O.2   266  ALA266     -0.2715
    134  CB        80.7040   37.0110   22.2900 C.3   266  ALA266      0.0334
    135  N         82.2880   39.7290   23.0230 N.am  267  PHE267     -0.1974
    136  CA        83.0350   40.8790   22.5300 C.3   267  PHE267      0.1639
    137  C         84.4470   41.0060   23.1010 C.2   267  PHE267      0.2290
    138  O         85.3440   41.5370   22.4360 O.2   267  PHE267     -0.2864
    139  CB        82.2320   42.1520   22.7790 C.3   267  PHE267      0.0560
    140  CG        80.9860   42.2360   21.9460 C.ar  267  PHE267     -0.0200
    141  CD1       81.0710   42.4020   20.5640 C.ar  267  PHE267     -0.0042
    142  CD2       79.7300   42.0940   22.5270 C.ar  267  PHE267     -0.0042
    143  CE1       79.9230   42.4210   19.7720 C.ar  267  PHE267     -0.0003
    144  CE2       78.5750   42.1110   21.7440 C.ar  267  PHE267     -0.0003
    145  CZ        78.6740   42.2730   20.3640 C.ar  267  PHE267     -0.0000
    146  N         75.7620   33.5470   16.3190 N.3   286  ASP286     -0.1225
    147  CA        74.3080   33.5650   16.3400 C.3   286  ASP286      0.1790
    148  C         73.8030   34.4370   17.4910 C.2   286  ASP286      0.2440
    149  O         73.0640   33.9840   18.3610 O.2   286  ASP286     -0.2733
    150  CB        73.8000   32.1350   16.4770 C.3   286  ASP286      0.1423
    151  CG        72.3100   32.0350   16.3530 C.2   286  ASP286      0.3668
    152  OD1       71.6990   32.9800   15.8120 O.co2 286  ASP286     -0.2456
    153  OD2       71.7510   31.0030   16.7780 O.co2 286  ASP286     -0.2456
    154  N         74.1710   35.7260   17.4800 N.am  287  PRO287     -0.2718
    155  CA        73.7710   36.6790   18.5190 C.3   287  PRO287      0.1520
    156  C         72.2920   37.0010   18.5430 C.2   287  PRO287      0.2440
    157  O         71.5430   36.5850   17.6690 O.2   287  PRO287     -0.2731
    158  CB        74.5800   37.9160   18.1650 C.3   287  PRO287      0.0310
    159  CG        74.5310   37.8840   16.6610 C.3   287  PRO287      0.0237
    160  CD        74.8330   36.4250   16.3590 C.3   287  PRO287      0.0939
    161  N         71.8510   37.7400   19.5750 N.am  288  PRO288     -0.2727
    162  CA        70.4470   38.1480   19.7240 C.3   288  PRO288      0.1402
    163  C         70.2600   39.5370   19.0680 C.2   288  PRO288      0.2269
    164  O         71.2310   40.1710   18.6470 O.2   288  PRO288     -0.2865
    165  CB        70.2570   38.1730   21.2420 C.3   288  PRO288      0.0296
    166  CG        71.5970   38.6670   21.7230 C.3   288  PRO288      0.0237
    167  CD        72.5740   37.8730   20.8620 C.3   288  PRO288      0.0939
    168  N         70.1850   42.8130   19.6200 N.3   290  PHE290     -0.1241
    169  CA        71.1120   43.9400   19.7790 C.3   290  PHE290      0.1605
    170  C         70.3680   45.2390   19.5080 C.2   290  PHE290      0.2264
    171  O         70.9590   46.3130   19.5190 O.2   290  PHE290     -0.2867
    172  CB        72.2800   43.8410   18.7980 C.3   290  PHE290      0.0534
    173  CG        73.3620   42.9130   19.2340 C.ar  290  PHE290     -0.0203
    174  CD1       74.3200   42.4800   18.3260 C.ar  290  PHE290     -0.0042
    175  CD2       73.4350   42.4740   20.5500 C.ar  290  PHE290     -0.0042
    176  CE1       75.3380   41.6180   18.7200 C.ar  290  PHE290     -0.0003
    177  CE2       74.4500   41.6120   20.9600 C.ar  290  PHE290     -0.0003
    178  CZ        75.4040   41.1820   20.0420 C.ar  290  PHE290     -0.0000
@<TRIPOS>BOND
     1    22    23    1
     2    24    25    2
     3    24    23    1
     4    20    19    2
     5    23    26    1
     6    16    15    2
     7    87    89   ar
     8    87    85   ar
     9    15    14    1
    10    14    13    1
    11    14    17    1
    12    19    21   am
    13    19    18    1
    14    89    88   ar
    15    26    27    1
    16    85    84   ar
    17    17    18    1
    18    27    28    1
    19    88    86   ar
    20    84    86   ar
    21    84    83    1
    22   152   151   ar
    23   146   147    1
    24   147   150    1
    25   147   148    1
    26   151   150    1
    27   151   153   ar
    28   160   159    1
    29   160   154    1
    30    29    28    1
    31    29    30    2
    32    82    81    2
    33   159   158    1
    34    83    80    1
    35    32    30    1
    36    30    31    1
    37     4     3    2
    38    80    81    1
    39    80    79    1
    40   154   148   am
    41   154   155    1
    42   148   149    2
    43   157   156    2
    44     3     2    1
    45    78    77    2
    46   158   155    1
    47    79    77   am
    48    39    38   ar
    49   174   176   ar
    50   174   173   ar
    51    77    76    1
    52   155   156    1
    53   156   161   am
    54    34    33    1
    55    34    37    1
    56    34    35    1
    57   164   163    2
    58   176   178   ar
    59   172   173    1
    60   172   169    1
    61    37    38    1
    62    38    40   ar
    63     5     2    1
    64     5     6    1
    65   163   162    1
    66     2     1    1
    67   173   175   ar
    68    49    47   ar
    69    49    51   ar
    70   170   171    2
    71   170   169    1
    72    47    46   ar
    73    35    36    2
    74   161   162    1
    75   161   167    1
    76   168   169    1
    77    76    75    1
    78   162   165    1
    79   143   145   ar
    80   143   141   ar
    81   178   177   ar
    82     8     6   ar
    83     8    10   ar
    84     6     7   ar
    85    51    50   ar
    86    46    45    1
    87    46    48   ar
    88    45    42    1
    89   145   144   ar
    90    44    43    2
    91   175   177   ar
    92   141   140   ar
    93   167   166    1
    94    10    11   ar
    95    50    48   ar
    96     7     9   ar
    97    41    42    1
    98    43    42    1
    99    43    52   am
   100   165   166    1
   101    53    56    1
   102    53    52    1
   103    53    54    1
   104   144   142   ar
   105    56    57    1
   106   140   142   ar
   107   140   139    1
   108   133   132    2
   109    11     9   ar
   110    11    12    1
   111    55    54    2
   112   134   131    1
   113   138   137    2
   114    54    58   am
   115   136   139    1
   116   136   135    1
   117   136   137    1
   118   132   135   am
   119   132   131    1
   120   131   130    1
   121    58    59    1
   122    90    91    1
   123    96    94    1
   124    62    59    1
   125    62    63    1
   126    94    95    1
   127    94    91    1
   128    93    92    2
   129    65    63   ar
   130    65    67   ar
   131    72    73    2
   132    72    71    1
   133    91    92    1
   134    59    60    1
   135    63    64   ar
   136   130   124   am
   137    70    60   am
   138    70    71    1
   139    92    97   am
   140    67    68   ar
   141    60    61    2
   142    71    74    1
   143   103   102   ar
   144   125   124    2
   145   124   123    1
   146    64    66   ar
   147    97    98    1
   148   128   127    2
   149    68    66   ar
   150    68    69    1
   151    98   101    1
   152    98    99    1
   153   102   101    1
   154   102   104   ar
   155   129   127   am
   156   127   126    1
   157   123   126    1
   158   123   122    1
   159    99   105   am
   160    99   100    2
   161   120   119    2
   162   105   106    1
   163   110   109    1
   164   122   119   am
   165   119   118    1
   166   121   118    1
   167   109   106    1
   168   106   107    1
   169   118   117    1
   170   111   107   am
   171   111   112    1
   172   107   108    2
   173   114   113    2
   174   115   112    1
   175   115   116    1
   176   112   113    1
