@<TRIPOS>MOLECULE
tmp/2cx8A00.pdb
 152 151 0 0 0
SMALL
GASTEIGER

@<TRIPOS>ATOM
      1  N         24.9620    0.9170   25.2320 N.3   154  ALA154     -0.1231
      2  CA        25.9850    1.1710   24.2300 C.3   154  ALA154      0.1694
      3  C         27.2190    1.7320   24.9450 C.2   154  ALA154      0.2592
      4  O         27.1860    2.8140   25.5350 O.2   154  ALA154     -0.2718
      5  CB        25.4670    2.1590   23.1780 C.3   154  ALA154      0.0304
      6  N         28.3100    0.9890   24.9040 N.am  155  HIS155     -0.1962
      7  CA        29.5010    1.4540   25.5740 C.3   155  HIS155      0.1787
      8  C         30.6880    1.4090   24.6460 C.2   155  HIS155      0.2620
      9  O         30.8770    0.4320   23.9250 O.2   155  HIS155     -0.2715
     10  CB        29.7790    0.5970   26.8110 C.3   155  HIS155      0.0785
     11  CG        31.0170    0.9980   27.5480 C.ar  155  HIS155      0.0821
     12  ND1       31.7920    0.0970   28.2470 N.ar  155  HIS155     -0.2267
     13  CD2       31.6360    2.1980   27.6630 C.ar  155  HIS155      0.1154
     14  CE1       32.8380    0.7230   28.7550 C.ar  155  HIS155      0.1986
     15  NE2       32.7680    1.9980   28.4150 N.ar  155  HIS155     -0.2212
     16  N         31.4880    2.4690   24.6640 N.am  156  VAL156     -0.1977
     17  CA        32.6700    2.5170   23.8200 C.3   156  VAL156      0.1596
     18  C         33.5770    1.3490   24.1920 C.2   156  VAL156      0.2287
     19  O         34.0690    0.6290   23.3230 O.2   156  VAL156     -0.2864
     20  CB        33.4470    3.8280   24.0180 C.3   156  VAL156      0.0276
     21  CG1       34.6020    3.8880   23.0380 C.3   156  VAL156      0.0022
     22  CG2       32.5170    5.0210   23.8320 C.3   156  VAL156      0.0022
     23  N         22.1710    5.0150   26.2560 N.3   176  VAL176     -0.1231
     24  CA        23.1940    5.7280   25.4900 C.3   176  VAL176      0.1692
     25  C         23.6930    6.8920   26.3520 C.2   176  VAL176      0.2593
     26  O         22.9070    7.5430   27.0630 O.2   176  VAL176     -0.2718
     27  CB        22.6200    6.2810   24.1490 C.3   176  VAL176      0.0266
     28  CG1       23.6610    7.1400   23.4380 C.3   176  VAL176      0.0020
     29  CG2       22.2010    5.1170   23.2510 C.3   176  VAL176      0.0020
     30  N         24.9990    7.1350   26.3070 N.am  177  GLY177     -0.1943
     31  CA        25.5630    8.2150   27.0880 C.3   177  GLY177      0.1998
     32  C         25.5630    9.5390   26.3420 C.2   177  GLY177      0.2481
     33  O         25.3020    9.5750   25.1400 O.2   177  GLY177     -0.2729
     34  N         25.8780   10.6470   27.0320 N.am  178  PRO178     -0.2715
     35  CA        25.9240   11.9990   26.4650 C.3   178  PRO178      0.1536
     36  C         27.1910   12.1550   25.6450 C.2   178  PRO178      0.2598
     37  O         27.9530   11.1970   25.5090 O.2   178  PRO178     -0.2715
     38  CB        25.9350   12.8810   27.7080 C.3   178  PRO178      0.0310
     39  CG        26.8300   12.0920   28.6260 C.3   178  PRO178      0.0237
     40  CD        26.3140   10.6590   28.4420 C.3   178  PRO178      0.0939
     41  N         27.4260   13.3620   25.1300 N.am  179  GLU179     -0.1964
     42  CA        28.6100   13.6270   24.3170 C.3   179  GLU179      0.1733
     43  C         29.8900   13.1450   24.9980 C.2   179  GLU179      0.2617
     44  O         30.7410   12.5300   24.3660 O.2   179  GLU179     -0.2715
     45  CB        28.7380   15.1240   23.9960 C.3   179  GLU179      0.0429
     46  CG        27.5990   15.7250   23.1690 C.3   179  GLU179      0.1163
     47  CD        26.4340   16.1390   24.0360 C.2   179  GLU179      0.3649
     48  OE1       26.4460   15.7740   25.2310 O.co2 179  GLU179     -0.2457
     49  OE2       25.5060   16.8170   23.5340 O.co2 179  GLU179     -0.2457
     50  N         30.0210   13.4210   26.2900 N.am  180  GLY180     -0.1940
     51  CA        31.2050   12.9980   27.0120 C.3   180  GLY180      0.2014
     52  C         31.2570   11.4950   27.2140 C.2   180  GLY180      0.2639
     53  O         32.3340   10.9210   27.3720 O.2   180  GLY180     -0.2714
     54  N         30.0870   10.8590   27.2110 N.am  181  GLY181     -0.1939
     55  CA        30.0100    9.4200   27.3870 C.3   181  GLY181      0.2014
     56  C         29.7830    9.0010   28.8280 C.2   181  GLY181      0.2638
     57  O         29.9000    9.8180   29.7370 O.2   181  GLY181     -0.2714
     58  N         29.4340    7.7350   29.0430 N.am  182  PHE182     -0.1973
     59  CA        29.2340    7.2320   30.4020 C.3   182  PHE182      0.1639
     60  C         30.5910    7.0810   31.0910 C.2   182  PHE182      0.2290
     61  O         31.5900    6.7060   30.4620 O.2   182  PHE182     -0.2864
     62  CB        28.5530    5.8590   30.3910 C.3   182  PHE182      0.0560
     63  CG        27.0930    5.9030   30.0750 C.ar  182  PHE182     -0.0200
     64  CD1       26.5770    5.1570   29.0210 C.ar  182  PHE182     -0.0042
     65  CD2       26.2260    6.6760   30.8340 C.ar  182  PHE182     -0.0042
     66  CE1       25.2080    5.1790   28.7240 C.ar  182  PHE182     -0.0003
     67  CE2       24.8560    6.7080   30.5470 C.ar  182  PHE182     -0.0003
     68  CZ        24.3480    5.9540   29.4840 C.ar  182  PHE182     -0.0000
     69  N         27.3860   -3.1970   25.0610 N.3   198  VAL198     -0.1231
     70  CA        27.4440   -3.6450   23.6870 C.3   198  VAL198      0.1692
     71  C         28.2080   -2.6730   22.8070 C.2   198  VAL198      0.2593
     72  O         28.2230   -1.4690   23.0390 O.2   198  VAL198     -0.2718
     73  CB        26.0250   -3.8790   23.0970 C.3   198  VAL198      0.0266
     74  CG1       25.3010   -4.9660   23.9080 C.3   198  VAL198      0.0020
     75  CG2       25.2100   -2.5800   23.0940 C.3   198  VAL198      0.0020
     76  N         28.8640   -3.2270   21.8010 N.am  199  SER199     -0.1938
     77  CA        29.6350   -2.4610   20.8450 C.3   199  SER199      0.2055
     78  C         28.7710   -2.0200   19.6790 C.2   199  SER199      0.2643
     79  O         27.8980   -2.7540   19.2330 O.2   199  SER199     -0.2714
     80  CB        30.7630   -3.3170   20.2850 C.3   199  SER199      0.2130
     81  OG        31.1890   -2.8140   19.0260 O.3   199  SER199     -0.2179
     82  N         29.0270   -0.8210   19.1790 N.am  200  LEU200     -0.1963
     83  CA        28.3070   -0.3170   18.0250 C.3   200  LEU200      0.1728
     84  C         29.3580   -0.1400   16.9420 C.2   200  LEU200      0.2617
     85  O         29.2100    0.6860   16.0460 O.2   200  LEU200     -0.2715
     86  CB        27.6300    1.0160   18.3300 C.3   200  LEU200      0.0311
     87  CG        26.3460    0.9210   19.1510 C.3   200  LEU200      0.0022
     88  CD1       25.7390    2.3100   19.3300 C.3   200  LEU200      0.0001
     89  CD2       25.3600    0.0020   18.4360 C.3   200  LEU200      0.0001
     90  N         30.4330   -0.9180   17.0460 N.am  201  GLY201     -0.1940
     91  CA        31.5000   -0.8350   16.0680 C.3   201  GLY201      0.2014
     92  C         32.7520   -0.1310   16.5600 C.2   201  GLY201      0.2639
     93  O         32.8100    0.3600   17.6900 O.2   201  GLY201     -0.2714
     94  N         33.7420   -0.0490   15.6760 N.am  202  ARG202     -0.1963
     95  CA        35.0380    0.5510   15.9860 C.3   202  ARG202      0.1729
     96  C         35.1490    2.0730   15.9480 C.2   202  ARG202      0.2616
     97  O         36.1240    2.6230   16.4460 O.2   202  ARG202     -0.2715
     98  CB        36.0850   -0.0460   15.0580 C.3   202  ARG202      0.0348
     99  CG        35.8970   -1.5410   14.8580 C.3   202  ARG202      0.0492
    100  CD        36.8640   -2.1250   13.8280 C.3   202  ARG202      0.2205
    101  NE        36.3460   -3.3610   13.2480 N.pl3 202  ARG202     -0.0865
    102  CZ        37.0480   -4.1940   12.4840 C.cat 202  ARG202      0.5346
    103  NH1       38.3170   -3.9400   12.1970 N.pl3 202  ARG202      0.1354
    104  NH2       36.4690   -5.2810   11.9900 N.pl3 202  ARG202      0.1354
    105  N         34.1710    2.7640   15.3730 N.am  203  ARG203     -0.1963
    106  CA        34.2500    4.2180   15.3010 C.3   203  ARG203      0.1729
    107  C         33.4250    4.8960   16.3790 C.2   203  ARG203      0.2616
    108  O         32.3630    4.4050   16.7440 O.2   203  ARG203     -0.2715
    109  CB        33.7840    4.6890   13.9340 C.3   203  ARG203      0.0348
    110  CG        34.6060    4.1300   12.7800 C.3   203  ARG203      0.0492
    111  CD        33.7240    3.9480   11.5830 C.3   203  ARG203      0.2205
    112  NE        32.6260    3.0590   11.9110 N.pl3 203  ARG203     -0.0865
    113  CZ        32.7200    1.7340   11.9530 C.cat 203  ARG203      0.5346
    114  NH1       33.8680    1.1320   11.6770 N.pl3 203  ARG203      0.1354
    115  NH2       31.6620    1.0050   12.2840 N.pl3 203  ARG203      0.1354
    116  N         33.9260    6.0110   16.9120 N.am  204  ILE204     -0.1963
    117  CA        33.1750    6.7440   17.9320 C.3   204  ILE204      0.1727
    118  C         31.9930    7.3570   17.2010 C.2   204  ILE204      0.2616
    119  O         32.1480    7.9540   16.1400 O.2   204  ILE204     -0.2715
    120  CB        34.0150    7.8650   18.5760 C.3   204  ILE204      0.0290
    121  CG1       35.0770    7.2540   19.4980 C.3   204  ILE204      0.0022
    122  CG2       33.1130    8.8140   19.3490 C.3   204  ILE204      0.0023
    123  CD1       36.1430    8.2510   19.9670 C.3   204  ILE204      0.0001
    124  N         30.8060    7.2000   17.7520 N.am  205  LEU205     -0.1963
    125  CA        29.6270    7.7290   17.0950 C.3   205  LEU205      0.1728
    126  C         29.0000    8.8100   17.9420 C.2   205  LEU205      0.2616
    127  O         29.1770    8.8140   19.1560 O.2   205  LEU205     -0.2715
    128  CB        28.6010    6.6100   16.8960 C.3   205  LEU205      0.0311
    129  CG        29.0780    5.3000   16.2620 C.3   205  LEU205      0.0022
    130  CD1       27.9650    4.2730   16.3780 C.3   205  LEU205      0.0001
    131  CD2       29.4960    5.5310   14.7920 C.3   205  LEU205      0.0001
    132  N         28.2700    9.7260   17.3130 N.am  206  ARG206     -0.1963
    133  CA        27.5750   10.7520   18.0800 C.3   206  ARG206      0.1729
    134  C         26.4770   10.0270   18.8620 C.2   206  ARG206      0.2616
    135  O         25.9410    9.0200   18.3990 O.2   206  ARG206     -0.2715
    136  CB        26.9080   11.7870   17.1630 C.3   206  ARG206      0.0348
    137  CG        27.8380   12.7910   16.4990 C.3   206  ARG206      0.0492
    138  CD        27.0620   13.6840   15.5290 C.3   206  ARG206      0.2205
    139  NE        26.6300   12.9470   14.3460 N.pl3 206  ARG206     -0.0865
    140  CZ        25.7840   13.4110   13.4310 C.cat 206  ARG206      0.5346
    141  NH1       25.2560   14.6240   13.5520 N.pl3 206  ARG206      0.1354
    142  NH2       25.4730   12.6620   12.3780 N.pl3 206  ARG206      0.1354
    143  N         26.1390   10.5450   20.0350 N.am  207  ALA207     -0.1977
    144  CA        25.0890    9.9620   20.8510 C.3   207  ALA207      0.1597
    145  C         23.7970    9.7450   20.0450 C.2   207  ALA207      0.2287
    146  O         23.0860    8.7430   20.2540 O.2   207  ALA207     -0.2864
    147  CB        24.8050   10.8710   22.0510 C.3   207  ALA207      0.0319
    148  N         24.2530    6.7850   17.8240 N.3   210  ALA210     -0.1245
    149  CA        24.3760    5.5890   18.6360 C.3   210  ALA210      0.1562
    150  C         22.9990    5.0830   19.0030 C.2   210  ALA210      0.2260
    151  O         22.7120    3.9010   18.8730 O.2   210  ALA210     -0.2867
    152  CB        25.1960    5.8770   19.9020 C.3   210  ALA210      0.0290
@<TRIPOS>BOND
     1   111   112    1
     2   111   110    1
     3   114   113    1
     4   112   113    2
     5   113   115    1
     6   104   102    1
     7   103   102    1
     8   142   140    1
     9   102   101    2
    10   110   109    1
    11   101   100    1
    12   140   141    1
    13   140   139    2
    14   100    99    1
    15   109   106    1
    16   139   138    1
    17   131   129    1
    18    99    98    1
    19    98    95    1
    20   106   105    1
    21   106   107    1
    22   105    96   am
    23   138   137    1
    24    94    95    1
    25    94    92   am
    26    96    95    1
    27    96    97    2
    28    85    84    2
    29    91    92    1
    30    91    90    1
    31   119   118    2
    32   129   130    1
    33   129   128    1
    34   107   108    2
    35   107   116   am
    36   137   136    1
    37    92    93    2
    38   128   125    1
    39   116   117    1
    40    84    90   am
    41    84    83    1
    42   125   124    1
    43   125   126    1
    44   136   133    1
    45   118   124   am
    46   118   117    1
    47   132   126   am
    48   132   133    1
    49   148   149    1
    50   117   120    1
    51   126   127    2
    52    83    86    1
    53    83    82    1
    54   133   134    1
    55    86    87    1
    56   135   134    2
    57    89    87    1
    58   120   122    1
    59   120   121    1
    60   149   150    1
    61   149   152    1
    62   134   143   am
    63   151   150    2
    64    81    80    1
    65    87    88    1
    66    82    78   am
    67    79    78    2
    68   121   123    1
    69    78    77    1
    70   143   144    1
    71   145   146    2
    72   145   144    1
    73    80    77    1
    74    77    76    1
    75   144   147    1
    76    76    71   am
    77    71    72    2
    78    71    70    1
    79    21    20    1
    80    75    73    1
    81    73    70    1
    82    73    74    1
    83    46    45    1
    84    46    47    1
    85     5     2    1
    86    29    27    1
    87    19    18    2
    88    28    27    1
    89    49    47   ar
    90    70    69    1
    91    17    20    1
    92    17    18    1
    93    17    16    1
    94    22    20    1
    95     9     8    2
    96    45    42    1
    97    47    48   ar
    98    27    24    1
    99     2     3    1
   100     2     1    1
   101    42    43    1
   102    42    41    1
   103    44    43    2
   104     8    16   am
   105     8     7    1
   106     6     3   am
   107     6     7    1
   108     3     4    2
   109    43    50   am
   110    41    36   am
   111    33    32    2
   112    24    23    1
   113    24    25    1
   114    37    36    2
   115     7    10    1
   116    36    35    1
   117    50    51    1
   118    30    25   am
   119    30    31    1
   120    32    34   am
   121    32    31    1
   122    25    26    2
   123    35    34    1
   124    35    38    1
   125    10    11    1
   126    51    52    1
   127    34    40    1
   128    54    52   am
   129    54    55    1
   130    52    53    2
   131    55    56    1
   132    11    13   ar
   133    11    12   ar
   134    13    15   ar
   135    38    39    1
   136    12    14   ar
   137    15    14   ar
   138    40    39    1
   139    66    64   ar
   140    66    68   ar
   141    56    58   am
   142    56    57    2
   143    64    63   ar
   144    58    59    1
   145    68    67   ar
   146    63    62    1
   147    63    65   ar
   148    62    59    1
   149    59    60    1
   150    61    60    2
   151    67    65   ar
