@<TRIPOS>MOLECULE
tmp/2cxgA02.pdb
 185 182 0 0 0
SMALL
GASTEIGER

@<TRIPOS>ATOM
      1  N         35.0050   93.0560   57.5690 N.3    89  TYR89      -0.1241
      2  CA        36.2300   93.8280   57.6220 C.3    89  TYR89       0.1605
      3  C         35.9230   95.3070   57.7830 C.2    89  TYR89       0.2264
      4  O         35.7650   96.0380   56.8060 O.2    89  TYR89      -0.2867
      5  CB        37.1660   93.5730   56.4200 C.3    89  TYR89       0.0534
      6  CG        37.7750   92.1840   56.3850 C.ar   89  TYR89      -0.0201
      7  CD1       38.7040   91.7750   57.3430 C.ar   89  TYR89      -0.0009
      8  CD2       37.4340   91.2850   55.3730 C.ar   89  TYR89      -0.0009
      9  CE1       39.2710   90.5000   57.3080 C.ar   89  TYR89       0.0417
     10  CE2       37.9940   90.0080   55.3170 C.ar   89  TYR89       0.0417
     11  CZ        38.9150   89.6170   56.2890 C.ar   89  TYR89       0.1957
     12  OH        39.4640   88.3660   56.2450 O.3    89  TYR89      -0.2866
     13  N         34.4780   85.2180   45.3610 N.3    98  HIS98      -0.1241
     14  CA        35.6470   85.1020   44.5120 C.3    98  HIS98       0.1621
     15  C         36.1400   83.6590   44.3900 C.2    98  HIS98       0.2264
     16  O         36.6890   83.2630   43.3590 O.2    98  HIS98      -0.2867
     17  CB        36.7680   86.0490   44.9640 C.3    98  HIS98       0.0745
     18  CG        36.9050   86.1110   46.4480 C.ar   98  HIS98       0.0817
     19  ND1       37.4710   85.0690   47.1640 N.ar   98  HIS98      -0.2268
     20  CD2       36.5550   87.0900   47.3250 C.ar   98  HIS98       0.1154
     21  CE1       37.4550   85.4290   48.4440 C.ar   98  HIS98       0.1986
     22  NE2       36.9040   86.6360   48.5750 N.ar   98  HIS98      -0.2212
     23  N         38.4600   82.1920   46.4360 N.3   100  TYR100     -0.1227
     24  CA        39.8330   82.0270   46.9150 C.3   100  TYR100      0.1736
     25  C         39.9630   81.6500   48.3960 C.2   100  TYR100      0.2595
     26  O         41.0660   81.6390   48.9430 O.2   100  TYR100     -0.2718
     27  CB        40.7080   83.2580   46.6020 C.3   100  TYR100      0.0548
     28  CG        40.9720   83.4960   45.1270 C.ar  100  TYR100     -0.0200
     29  CD1       41.7500   82.6100   44.3790 C.ar  100  TYR100     -0.0009
     30  CD2       40.4760   84.6360   44.4920 C.ar  100  TYR100     -0.0009
     31  CE1       42.0110   82.8350   43.0270 C.ar  100  TYR100      0.0417
     32  CE2       40.7250   84.8790   43.1400 C.ar  100  TYR100      0.0417
     33  CZ        41.4960   83.9740   42.4090 C.ar  100  TYR100      0.1957
     34  OH        41.7550   84.2030   41.0850 O.3   100  TYR100     -0.2866
     35  N         38.8380   81.3450   49.0350 N.am  101  TRP101     -0.1976
     36  CA        38.7940   80.9600   50.4390 C.3   101  TRP101      0.1640
     37  C         38.3630   79.5070   50.6080 C.2   101  TRP101      0.2290
     38  O         37.2610   79.2110   51.0760 O.2   101  TRP101     -0.2864
     39  CB        37.8650   81.8990   51.2140 C.3   101  TRP101      0.0576
     40  CG        38.3870   83.2990   51.2130 C.ar  101  TRP101      0.0006
     41  CD1       39.6480   83.6700   50.8750 C.ar  101  TRP101      0.0946
     42  CD2       37.6880   84.5040   51.5640 C.ar  101  TRP101      0.0152
     43  NE1       39.7910   85.0240   50.9940 N.ar  101  TRP101     -0.2442
     44  CE2       38.6040   85.5650   51.4180 C.ar  101  TRP101      0.0810
     45  CE3       36.3900   84.7850   51.9900 C.ar  101  TRP101      0.0012
     46  CZ2       38.2450   86.8870   51.6880 C.ar  101  TRP101      0.0191
     47  CZ3       36.0370   86.0920   52.2570 C.ar  101  TRP101      0.0001
     48  CH2       36.9550   87.1300   52.1020 C.ar  101  TRP101      0.0015
     49  N         46.7040   78.3510   50.6580 N.3   140  HIS140     -0.1241
     50  CA        46.0290   78.5850   51.9120 C.3   140  HIS140      0.1621
     51  C         44.6100   78.0610   51.8990 C.2   140  HIS140      0.2264
     52  O         44.1720   77.4180   50.9440 O.2   140  HIS140     -0.2867
     53  CB        45.9860   80.0980   52.1720 C.3   140  HIS140      0.0745
     54  CG        45.5120   80.8490   50.9620 C.ar  140  HIS140      0.0817
     55  ND1       46.3980   81.4820   50.1010 N.ar  140  HIS140     -0.2268
     56  CD2       44.2550   81.0350   50.4780 C.ar  140  HIS140      0.1154
     57  CE1       45.6730   82.0390   49.1380 C.ar  140  HIS140      0.1986
     58  NE2       44.3840   81.7890   49.3350 N.ar  140  HIS140     -0.2212
     59  N         49.8060   85.0490   53.9600 N.3   194  LEU194     -0.1231
     60  CA        49.4850   85.9870   52.9060 C.3   194  LEU194      0.1693
     61  C         48.2290   86.7000   53.3590 C.2   194  LEU194      0.2592
     62  O         47.1280   86.1530   53.2800 O.2   194  LEU194     -0.2718
     63  CB        49.2720   85.2750   51.5590 C.3   194  LEU194      0.0284
     64  CG        48.6040   86.1470   50.5080 C.3   194  LEU194      0.0019
     65  CD1       49.5270   87.2940   50.1290 C.3   194  LEU194      0.0001
     66  CD2       48.2740   85.3160   49.2740 C.3   194  LEU194      0.0001
     67  N         48.4110   87.8960   53.9120 N.am  195  TYR195     -0.1962
     68  CA        47.3090   88.6440   54.4730 C.3   195  TYR195      0.1771
     69  C         46.9100   87.9630   55.7670 C.2   195  TYR195      0.2620
     70  O         47.7330   87.7560   56.6580 O.2   195  TYR195     -0.2715
     71  CB        46.0950   88.7410   53.5290 C.3   195  TYR195      0.0574
     72  CG        46.3910   89.5280   52.2800 C.ar  195  TYR195     -0.0198
     73  CD1       46.9960   90.7820   52.3570 C.ar  195  TYR195     -0.0009
     74  CD2       46.0820   89.0130   51.0210 C.ar  195  TYR195     -0.0009
     75  CE1       47.2860   91.5170   51.2070 C.ar  195  TYR195      0.0417
     76  CE2       46.3610   89.7340   49.8590 C.ar  195  TYR195      0.0417
     77  CZ        46.9630   90.9890   49.9560 C.ar  195  TYR195      0.1957
     78  OH        47.2440   91.7040   48.8200 O.3   195  TYR195     -0.2866
     79  N         45.6520   87.5690   55.8520 N.am  196  ASP196     -0.1957
     80  CA        45.1720   86.8840   57.0290 C.3   196  ASP196      0.1840
     81  C         44.7120   85.4800   56.6850 C.2   196  ASP196      0.2621
     82  O         43.9790   84.8460   57.4400 O.2   196  ASP196     -0.2715
     83  CB        44.0680   87.6730   57.7490 C.3   196  ASP196      0.1450
     84  CG        42.8400   87.8050   56.9050 C.2   196  ASP196      0.3671
     85  OD1       42.7900   87.3990   55.7620 O.co2 196  ASP196     -0.2456
     86  OD2       41.8370   88.3630   57.5370 O.co2 196  ASP196     -0.2456
     87  N         45.1540   85.0020   55.5250 N.am  197  LEU197     -0.1977
     88  CA        44.7950   83.6770   55.0570 C.3   197  LEU197      0.1596
     89  C         45.6330   82.6020   55.7270 C.2   197  LEU197      0.2287
     90  O         46.8550   82.7160   55.8030 O.2   197  LEU197     -0.2864
     91  CB        44.8980   83.5610   53.5190 C.3   197  LEU197      0.0297
     92  CG        44.1630   84.6690   52.7700 C.3   197  LEU197      0.0022
     93  CD1       44.7760   84.8620   51.3890 C.3   197  LEU197      0.0001
     94  CD2       42.6880   84.3140   52.6330 C.3   197  LEU197      0.0001
     95  N         45.2200   76.8320   36.7560 N.3   227  ARG227     -0.1245
     96  CA        45.8340   78.1030   37.0520 C.3   227  ARG227      0.1563
     97  C         46.2410   78.1460   38.5030 C.2   227  ARG227      0.2260
     98  O         45.3960   78.2170   39.3920 O.2   227  ARG227     -0.2867
     99  CB        45.0370   79.3420   36.7130 C.3   227  ARG227      0.0307
    100  CG        45.9490   80.5520   36.8840 C.3   227  ARG227      0.0489
    101  CD        45.2750   81.7940   37.4460 C.3   227  ARG227      0.2205
    102  NE        45.1550   81.8460   38.9010 N.pl3 227  ARG227     -0.0865
    103  CZ        45.2290   82.9800   39.6070 C.cat 227  ARG227      0.5346
    104  NH1       45.4330   84.1650   39.0330 N.pl3 227  ARG227      0.1354
    105  NH2       45.0950   82.9300   40.9290 N.pl3 227  ARG227      0.1354
    106  N         47.3640   79.6620   41.7740 N.3   229  ASP229     -0.1225
    107  CA        47.2580   80.9200   42.4710 C.3   229  ASP229      0.1805
    108  C         48.4090   81.1040   43.4530 C.2   229  ASP229      0.2597
    109  O         48.9100   80.1340   44.0130 O.2   229  ASP229     -0.2718
    110  CB        45.9000   80.9750   43.2010 C.3   229  ASP229      0.1424
    111  CG        45.7300   82.1790   44.0740 C.2   229  ASP229      0.3668
    112  OD1       45.6720   83.3120   43.6340 O.co2 229  ASP229     -0.2456
    113  OD2       45.6420   81.8780   45.3450 O.co2 229  ASP229     -0.2456
    114  N         48.8230   82.3610   43.6480 N.am  230  ALA230     -0.1979
    115  CA        49.8890   82.7380   44.5740 C.3   230  ALA230      0.1597
    116  C         51.0880   81.7930   44.5720 C.2   230  ALA230      0.2287
    117  O         51.5060   81.2930   45.6180 O.2   230  ALA230     -0.2864
    118  CB        49.3250   82.8860   45.9770 C.3   230  ALA230      0.0319
    119  N         54.2380   82.3960   46.6780 N.3   233  HIS233     -0.1241
    120  CA        53.9900   82.2620   48.1010 C.3   233  HIS233      0.1621
    121  C         54.0590   80.8140   48.5670 C.2   233  HIS233      0.2264
    122  O         53.7630   80.5000   49.7190 O.2   233  HIS233     -0.2867
    123  CB        52.6510   82.8970   48.4940 C.3   233  HIS233      0.0745
    124  CG        52.5690   84.3350   48.0980 C.ar  233  HIS233      0.0817
    125  ND1       53.2380   85.3220   48.8030 N.ar  233  HIS233     -0.2268
    126  CD2       51.9050   84.9250   47.0720 C.ar  233  HIS233      0.1154
    127  CE1       52.9650   86.4750   48.2050 C.ar  233  HIS233      0.1986
    128  NE2       52.1700   86.2720   47.1620 N.ar  233  HIS233     -0.2212
    129  N         50.4400   82.1200   38.9990 N.3   257  GLU257     -0.1245
    130  CA        50.3940   83.5470   39.1940 C.3   257  GLU257      0.1567
    131  C         51.5710   84.0500   40.0130 C.2   257  GLU257      0.2260
    132  O         51.6800   83.7900   41.2110 O.2   257  GLU257     -0.2867
    133  CB        49.0670   83.9840   39.8270 C.3   257  GLU257      0.0388
    134  CG        48.9650   85.5120   39.9840 C.3   257  GLU257      0.1160
    135  CD        48.6480   85.9340   41.3870 C.2   257  GLU257      0.3649
    136  OE1       48.6520   85.1680   42.3280 O.co2 257  GLU257     -0.2457
    137  OE2       48.3540   87.2040   41.4790 O.co2 257  GLU257     -0.2457
    138  N         52.8530   87.5000   40.6930 N.3   259  PHE259     -0.1241
    139  CA        52.6800   88.9280   40.6900 C.3   259  PHE259      0.1605
    140  C         53.9650   89.7180   40.5250 C.2   259  PHE259      0.2264
    141  O         54.9380   89.5250   41.2460 O.2   259  PHE259     -0.2867
    142  CB        51.8840   89.4040   41.9140 C.3   259  PHE259      0.0534
    143  CG        51.0320   90.6100   41.6110 C.ar  259  PHE259     -0.0203
    144  CD1       51.6080   91.8770   41.5300 C.ar  259  PHE259     -0.0042
    145  CD2       49.6580   90.4860   41.3940 C.ar  259  PHE259     -0.0042
    146  CE1       50.8370   93.0050   41.2470 C.ar  259  PHE259     -0.0003
    147  CE2       48.8700   91.6020   41.1080 C.ar  259  PHE259     -0.0003
    148  CZ        49.4650   92.8620   41.0370 C.ar  259  PHE259     -0.0000
    149  N         41.4280   90.6810   37.6150 N.3   327  HIS327     -0.1226
    150  CA        40.6580   90.8850   38.8250 C.3   327  HIS327      0.1752
    151  C         41.4440   91.5320   39.9580 C.2   327  HIS327      0.2596
    152  O         40.8590   91.9340   40.9630 O.2   327  HIS327     -0.2718
    153  CB        40.0310   89.5640   39.3000 C.3   327  HIS327      0.0759
    154  CG        41.0580   88.5200   39.5920 C.ar  327  HIS327      0.0818
    155  ND1       41.8870   88.0160   38.5980 N.ar  327  HIS327     -0.2268
    156  CD2       41.3820   87.9060   40.7610 C.ar  327  HIS327      0.1154
    157  CE1       42.6850   87.1220   39.1770 C.ar  327  HIS327      0.1986
    158  NE2       42.4080   87.0330   40.4750 N.ar  327  HIS327     -0.2212
    159  N         42.7650   91.6300   39.8050 N.am  328  ASP328     -0.1974
    160  CA        43.6030   92.2090   40.8480 C.3   328  ASP328      0.1709
    161  C         44.1260   93.6130   40.5530 C.2   328  ASP328      0.2293
    162  O         44.8850   94.1770   41.3370 O.2   328  ASP328     -0.2864
    163  CB        44.7520   91.2760   41.2720 C.3   328  ASP328      0.1436
    164  CG        44.2950   90.0460   42.0070 C.2   328  ASP328      0.3671
    165  OD1       43.2040   89.9420   42.5410 O.co2 328  ASP328     -0.2456
    166  OD2       45.2080   89.1080   42.0220 O.co2 328  ASP328     -0.2456
    167  N         39.8610   96.1640   43.3910 N.3   371  ASP371     -0.1239
    168  CA        38.9350   95.3010   44.1110 C.3   371  ASP371      0.1674
    169  C         38.0740   96.1300   45.0550 C.2   371  ASP371      0.2266
    170  O         38.5910   96.9660   45.7960 O.2   371  ASP371     -0.2867
    171  CB        39.7430   94.2490   44.9050 C.3   371  ASP371      0.1410
    172  CG        38.9310   93.1100   45.4470 C.2   371  ASP371      0.3668
    173  OD1       37.7680   92.9180   45.1530 O.co2 371  ASP371     -0.2456
    174  OD2       39.6170   92.3420   46.2590 O.co2 371  ASP371     -0.2456
    175  N         35.3000   93.9720   39.5980 N.3   375  ARG375     -0.1245
    176  CA        34.5350   92.7500   39.5440 C.3   375  ARG375      0.1563
    177  C         33.0360   92.9890   39.4630 C.2   375  ARG375      0.2260
    178  O         32.2550   92.3410   40.1520 O.2   375  ARG375     -0.2867
    179  CB        34.8890   91.8200   40.6970 C.3   375  ARG375      0.0307
    180  CG        36.3900   91.5850   40.8390 C.3   375  ARG375      0.0489
    181  CD        36.8460   91.5760   42.2940 C.3   375  ARG375      0.2205
    182  NE        38.1810   91.0110   42.4910 N.pl3 375  ARG375     -0.0865
    183  CZ        38.5330   90.3000   43.5600 C.cat 375  ARG375      0.5346
    184  NH1       37.6780   90.0380   44.5420 N.pl3 375  ARG375      0.1354
    185  NH2       39.7730   89.8310   43.6480 N.pl3 375  ARG375      0.1354
@<TRIPOS>BOND
     1    99   100    1
     2    99    96    1
     3    95    96    1
     4   100   101    1
     5    96    97    1
     6   101   102    1
     7   149   150    1
     8    97    98    2
     9   155   157   ar
    10   155   154   ar
    11   150   153    1
    12   150   151    1
    13   102   103    2
    14   129   130    1
    15   104   103    1
    16   157   158   ar
    17   130   133    1
    18   130   131    1
    19   153   154    1
    20   177   176    1
    21   177   178    2
    22   176   175    1
    23   176   179    1
    24   154   156   ar
    25   103   105    1
    26   159   151   am
    27   159   160    1
    28   133   134    1
    29   151   152    2
    30   134   135    1
    31   131   132    2
    32   158   156   ar
    33   140   139    1
    34   140   141    2
    35   161   160    1
    36   161   162    2
    37   139   138    1
    38   139   142    1
    39   179   180    1
    40   180   181    1
    41   160   163    1
    42   148   147   ar
    43   148   146   ar
    44    34    33    1
    45   147   145   ar
    46   146   144   ar
    47   163   164    1
    48   135   137   ar
    49   135   136   ar
    50   145   143   ar
    51   144   143   ar
    52   143   142    1
    53   106   107    1
    54   164   166   ar
    55   164   165   ar
    56   181   182    1
    57    33    31   ar
    58    33    32   ar
    59   107   110    1
    60   107   108    1
    61   182   183    2
    62    31    29   ar
    63    32    30   ar
    64   110   111    1
    65    16    15    2
    66   167   168    1
    67   108   114   am
    68   108   109    2
    69   183   185    1
    70   183   184    1
    71   112   111   ar
    72   114   115    1
    73   111   113   ar
    74   168   171    1
    75   168   169    1
    76    29    28   ar
    77    15    14    1
    78    30    28   ar
    79    14    17    1
    80    14    13    1
    81   116   115    1
    82   116   117    2
    83   115   118    1
    84   171   172    1
    85    17    18    1
    86   169   170    2
    87    28    27    1
    88   173   172   ar
    89   172   174   ar
    90    23    24    1
    91    18    19   ar
    92    18    20   ar
    93    27    24    1
    94   119   120    1
    95    24    25    1
    96   126   128   ar
    97   126   124   ar
    98   128   127   ar
    99    19    21   ar
   100    20    22   ar
   101   124   123    1
   102   124   125   ar
   103   120   123    1
   104   120   121    1
   105   127   125   ar
   106    25    26    2
   107    25    35   am
   108    21    22   ar
   109   121   122    2
   110    78    77    1
   111    35    36    1
   112    57    58   ar
   113    57    55   ar
   114    66    64    1
   115    58    56   ar
   116    76    77   ar
   117    76    74   ar
   118    77    75   ar
   119    55    54   ar
   120    65    64    1
   121    36    37    1
   122    36    39    1
   123    56    54   ar
   124    64    63    1
   125    37    38    2
   126    49    50    1
   127    41    43   ar
   128    41    40   ar
   129    52    51    2
   130    54    53    1
   131    43    44   ar
   132    74    72   ar
   133    75    73   ar
   134    40    39    1
   135    40    42   ar
   136    93    92    1
   137    44    42   ar
   138    44    46   ar
   139    63    60    1
   140    42    45   ar
   141    46    48   ar
   142    51    50    1
   143    50    53    1
   144    45    47   ar
   145    48    47   ar
   146    72    73   ar
   147    72    71    1
   148    94    92    1
   149    92    91    1
   150    60    61    1
   151    60    59    1
   152    62    61    2
   153    61    67   am
   154    91    88    1
   155    71    68    1
   156    67    68    1
   157    68    69    1
   158    88    87    1
   159    88    89    1
   160    10     8   ar
   161    10    11   ar
   162     8     6   ar
   163    87    81   am
   164    89    90    2
   165    85    84   ar
   166    69    79   am
   167    69    70    2
   168    79    80    1
   169    12    11    1
   170    11     9   ar
   171     6     5    1
   172     6     7   ar
   173     5     2    1
   174    81    80    1
   175    81    82    2
   176     4     3    2
   177    84    86   ar
   178    84    83    1
   179    80    83    1
   180     9     7   ar
   181     1     2    1
   182     2     3    1
