@<TRIPOS>MOLECULE
tmp/2cxgA01.pdb
 112 108 0 0 0
SMALL
GASTEIGER

@<TRIPOS>ATOM
      1  N         56.0350   91.1940   52.2550 N.3   183  PHE183     -0.1241
      2  CA        56.5190   91.1130   50.8890 C.3   183  PHE183      0.1605
      3  C         57.9650   91.5840   50.7770 C.2   183  PHE183      0.2264
      4  O         58.4470   91.9060   49.6940 O.2   183  PHE183     -0.2867
      5  CB        55.5940   91.8650   49.9040 C.3   183  PHE183      0.0534
      6  CG        54.1940   91.2820   49.8150 C.ar  183  PHE183     -0.0203
      7  CD1       53.9800   90.0200   49.2620 C.ar  183  PHE183     -0.0042
      8  CD2       53.0860   91.9940   50.2760 C.ar  183  PHE183     -0.0042
      9  CE1       52.7010   89.4690   49.1800 C.ar  183  PHE183     -0.0003
     10  CE2       51.7980   91.4640   50.1980 C.ar  183  PHE183     -0.0003
     11  CZ        51.6070   90.1970   49.6490 C.ar  183  PHE183     -0.0000
     12  N         49.8060   85.0490   53.9600 N.3   194  LEU194     -0.1231
     13  CA        49.4850   85.9870   52.9060 C.3   194  LEU194      0.1693
     14  C         48.2290   86.7000   53.3590 C.2   194  LEU194      0.2592
     15  O         47.1280   86.1530   53.2800 O.2   194  LEU194     -0.2718
     16  CB        49.2720   85.2750   51.5590 C.3   194  LEU194      0.0284
     17  CG        48.6040   86.1470   50.5080 C.3   194  LEU194      0.0019
     18  CD1       49.5270   87.2940   50.1290 C.3   194  LEU194      0.0001
     19  CD2       48.2740   85.3160   49.2740 C.3   194  LEU194      0.0001
     20  N         48.4110   87.8960   53.9120 N.am  195  TYR195     -0.1976
     21  CA        47.3090   88.6440   54.4730 C.3   195  TYR195      0.1639
     22  C         46.9100   87.9630   55.7670 C.2   195  TYR195      0.2290
     23  O         47.7330   87.7560   56.6580 O.2   195  TYR195     -0.2864
     24  CB        46.0950   88.7410   53.5290 C.3   195  TYR195      0.0560
     25  CG        46.3910   89.5280   52.2800 C.ar  195  TYR195     -0.0198
     26  CD1       46.9960   90.7820   52.3570 C.ar  195  TYR195     -0.0009
     27  CD2       46.0820   89.0130   51.0210 C.ar  195  TYR195     -0.0009
     28  CE1       47.2860   91.5170   51.2070 C.ar  195  TYR195      0.0417
     29  CE2       46.3610   89.7340   49.8590 C.ar  195  TYR195      0.0417
     30  CZ        46.9630   90.9890   49.9560 C.ar  195  TYR195      0.1957
     31  OH        47.2440   91.7040   48.8200 O.3   195  TYR195     -0.2866
     32  N         47.3640   79.6620   41.7740 N.3   229  ASP229     -0.1225
     33  CA        47.2580   80.9200   42.4710 C.3   229  ASP229      0.1805
     34  C         48.4090   81.1040   43.4530 C.2   229  ASP229      0.2597
     35  O         48.9100   80.1340   44.0130 O.2   229  ASP229     -0.2718
     36  CB        45.9000   80.9750   43.2010 C.3   229  ASP229      0.1424
     37  CG        45.7300   82.1790   44.0740 C.2   229  ASP229      0.3668
     38  OD1       45.6720   83.3120   43.6340 O.co2 229  ASP229     -0.2456
     39  OD2       45.6420   81.8780   45.3450 O.co2 229  ASP229     -0.2456
     40  N         48.8230   82.3610   43.6480 N.am  230  ALA230     -0.1979
     41  CA        49.8890   82.7380   44.5740 C.3   230  ALA230      0.1597
     42  C         51.0880   81.7930   44.5720 C.2   230  ALA230      0.2287
     43  O         51.5060   81.2930   45.6180 O.2   230  ALA230     -0.2864
     44  CB        49.3250   82.8860   45.9770 C.3   230  ALA230      0.0319
     45  N         54.2010   82.4480   44.0690 N.3   232  LYS232     -0.1231
     46  CA        55.4160   82.9630   44.6560 C.3   232  LYS232      0.1693
     47  C         55.3580   82.9210   46.1730 C.2   232  LYS232      0.2592
     48  O         56.2950   83.3300   46.8600 O.2   232  LYS232     -0.2718
     49  CB        55.7930   84.3340   44.1340 C.3   232  LYS232      0.0285
     50  CG        55.0140   85.4600   44.7850 C.3   232  LYS232      0.0035
     51  CD        55.1570   86.7690   44.0270 C.3   232  LYS232      0.0206
     52  CE        55.6450   87.9150   44.8960 C.3   232  LYS232      0.1093
     53  NZ        55.3240   89.2390   44.3390 N.3   232  LYS232     -0.1314
     54  N         54.2380   82.3960   46.6780 N.am  233  HIS233     -0.1976
     55  CA        53.9900   82.2620   48.1010 C.3   233  HIS233      0.1656
     56  C         54.0590   80.8140   48.5670 C.2   233  HIS233      0.2291
     57  O         53.7630   80.5000   49.7190 O.2   233  HIS233     -0.2864
     58  CB        52.6510   82.8970   48.4940 C.3   233  HIS233      0.0771
     59  CG        52.5690   84.3350   48.0980 C.ar  233  HIS233      0.0820
     60  ND1       53.2380   85.3220   48.8030 N.ar  233  HIS233     -0.2267
     61  CD2       51.9050   84.9250   47.0720 C.ar  233  HIS233      0.1154
     62  CE1       52.9650   86.4750   48.2050 C.ar  233  HIS233      0.1986
     63  NE2       52.1700   86.2720   47.1620 N.ar  233  HIS233     -0.2212
     64  N         50.4400   82.1200   38.9990 N.3   257  GLU257     -0.1245
     65  CA        50.3940   83.5470   39.1940 C.3   257  GLU257      0.1567
     66  C         51.5710   84.0500   40.0130 C.2   257  GLU257      0.2260
     67  O         51.6800   83.7900   41.2110 O.2   257  GLU257     -0.2867
     68  CB        49.0670   83.9840   39.8270 C.3   257  GLU257      0.0388
     69  CG        48.9650   85.5120   39.9840 C.3   257  GLU257      0.1160
     70  CD        48.6480   85.9340   41.3870 C.2   257  GLU257      0.3649
     71  OE1       48.6520   85.1680   42.3280 O.co2 257  GLU257     -0.2457
     72  OE2       48.3540   87.2040   41.4790 O.co2 257  GLU257     -0.2457
     73  N         52.8530   87.5000   40.6930 N.3   259  PHE259     -0.1227
     74  CA        52.6800   88.9280   40.6900 C.3   259  PHE259      0.1736
     75  C         53.9650   89.7180   40.5250 C.2   259  PHE259      0.2595
     76  O         54.9380   89.5250   41.2460 O.2   259  PHE259     -0.2718
     77  CB        51.8840   89.4040   41.9140 C.3   259  PHE259      0.0547
     78  CG        51.0320   90.6100   41.6110 C.ar  259  PHE259     -0.0202
     79  CD1       51.6080   91.8770   41.5300 C.ar  259  PHE259     -0.0042
     80  CD2       49.6580   90.4860   41.3940 C.ar  259  PHE259     -0.0042
     81  CE1       50.8370   93.0050   41.2470 C.ar  259  PHE259     -0.0003
     82  CE2       48.8700   91.6020   41.1080 C.ar  259  PHE259     -0.0003
     83  CZ        49.4650   92.8620   41.0370 C.ar  259  PHE259     -0.0000
     84  N         53.9360   90.6250   39.5610 N.am  260  LEU260     -0.1966
     85  CA        55.0410   91.5160   39.2760 C.3   260  LEU260      0.1728
     86  C         54.5020   92.9270   39.1290 C.2   260  LEU260      0.2616
     87  O         53.4340   93.1390   38.5620 O.2   260  LEU260     -0.2715
     88  CB        55.8340   91.1090   38.0190 C.3   260  LEU260      0.0311
     89  CG        56.7610   89.9200   38.2420 C.3   260  LEU260      0.0022
     90  CD1       57.5490   89.6400   36.9670 C.3   260  LEU260      0.0001
     91  CD2       57.7170   90.2040   39.3950 C.3   260  LEU260      0.0001
     92  N         55.2270   93.8900   39.6580 N.am  261  GLY261     -0.1955
     93  CA        54.7850   95.2610   39.5710 C.3   261  GLY261      0.1869
     94  C         55.4270   95.9920   38.4060 C.2   261  GLY261      0.2309
     95  O         56.2100   95.4220   37.6440 O.2   261  GLY261     -0.2863
     96  N         59.1530   95.9330   37.2360 N.3   264  GLU264     -0.1245
     97  CA        59.7300   94.8660   38.0300 C.3   264  GLU264      0.1567
     98  C         60.1970   93.6910   37.1870 C.2   264  GLU264      0.2260
     99  O         59.4280   93.1100   36.4230 O.2   264  GLU264     -0.2867
    100  CB        58.7720   94.3950   39.1350 C.3   264  GLU264      0.0388
    101  CG        59.4610   94.2670   40.5030 C.3   264  GLU264      0.1160
    102  CD        59.0540   93.0300   41.2420 C.2   264  GLU264      0.3649
    103  OE1       58.0490   92.9630   41.9230 O.co2 264  GLU264     -0.2457
    104  OE2       59.8870   92.0360   41.0650 O.co2 264  GLU264     -0.2457
    105  N         42.7650   91.6300   39.8050 N.3   328  ASP328     -0.1239
    106  CA        43.6030   92.2090   40.8480 C.3   328  ASP328      0.1674
    107  C         44.1260   93.6130   40.5530 C.2   328  ASP328      0.2266
    108  O         44.8850   94.1770   41.3370 O.2   328  ASP328     -0.2867
    109  CB        44.7520   91.2760   41.2720 C.3   328  ASP328      0.1410
    110  CG        44.2950   90.0460   42.0070 C.2   328  ASP328      0.3668
    111  OD1       43.2040   89.9420   42.5410 O.co2 328  ASP328     -0.2456
    112  OD2       45.2080   89.1080   42.0220 O.co2 328  ASP328     -0.2456
@<TRIPOS>BOND
     1    99    98    2
     2    90    89    1
     3    98    97    1
     4    96    97    1
     5    95    94    2
     6    88    89    1
     7    88    85    1
     8    97   100    1
     9    89    91    1
    10    94    93    1
    11    87    86    2
    12    64    65    1
    13    86    85    1
    14    86    92   am
    15   100   101    1
    16    65    68    1
    17    65    66    1
    18    85    84    1
    19    84    75   am
    20    93    92    1
    21   105   106    1
    22    68    69    1
    23    69    70    1
    24    66    67    2
    25   101   102    1
    26    75    74    1
    27    75    76    2
    28   107   106    1
    29   107   108    2
    30    74    73    1
    31    74    77    1
    32   106   109    1
    33    83    82   ar
    34    83    81   ar
    35   104   102   ar
    36    82    80   ar
    37   102   103   ar
    38    81    79   ar
    39   109   110    1
    40    70    72   ar
    41    70    71   ar
    42    80    78   ar
    43    79    78   ar
    44    78    77    1
    45    32    33    1
    46   110   112   ar
    47   110   111   ar
    48    33    36    1
    49    33    34    1
    50    36    37    1
    51    34    40   am
    52    34    35    2
    53    38    37   ar
    54    40    41    1
    55    51    50    1
    56    51    52    1
    57    45    46    1
    58    37    39   ar
    59    49    46    1
    60    49    50    1
    61    53    52    1
    62    42    41    1
    63    42    43    2
    64    41    44    1
    65    46    47    1
    66    47    54   am
    67    47    48    2
    68    54    55    1
    69    61    63   ar
    70    61    59   ar
    71    63    62   ar
    72    59    58    1
    73    59    60   ar
    74    55    58    1
    75    55    56    1
    76    62    60   ar
    77    56    57    2
    78    31    30    1
    79     9     7   ar
    80     9    11   ar
    81     7     6   ar
    82    19    17    1
    83    11    10   ar
    84     4     3    2
    85     6     5    1
    86     6     8   ar
    87    29    30   ar
    88    29    27   ar
    89     5     2    1
    90    30    28   ar
    91    18    17    1
    92    10     8   ar
    93    17    16    1
    94     3     2    1
    95     2     1    1
    96    27    25   ar
    97    28    26   ar
    98    16    13    1
    99    25    26   ar
   100    25    24    1
   101    13    14    1
   102    13    12    1
   103    15    14    2
   104    14    20   am
   105    24    21    1
   106    20    21    1
   107    21    22    1
   108    22    23    2
