@<TRIPOS>MOLECULE
tmp/2cxoA00.pdb
 130 120 0 0 0
SMALL
GASTEIGER

@<TRIPOS>ATOM
      1  N          8.2530   10.2080    3.2810 N.3   157  ILE157     -0.1231
      2  CA         8.6000    8.9880    3.9990 C.3   157  ILE157      0.1692
      3  C          9.0750    7.9230    3.0130 C.2   157  ILE157      0.2593
      4  O          8.7230    7.9610    1.8320 O.2   157  ILE157     -0.2718
      5  CB         7.4030    8.5100    4.8960 C.3   157  ILE157      0.0266
      6  CG1        7.8630    7.4920    5.9530 C.3   157  ILE157      0.0019
      7  CG2        6.2370    7.9950    4.0510 C.3   157  ILE157      0.0020
      8  CD1        6.8890    7.3540    7.1360 C.3   157  ILE157      0.0001
      9  N          9.8950    6.9920    3.4920 N.am  158  GLY158     -0.1942
     10  CA        10.4000    5.9210    2.6510 C.3   158  GLY158      0.2014
     11  C         11.2020    6.4750    1.4850 C.2   158  GLY158      0.2639
     12  O         12.1350    7.2550    1.6800 O.2   158  GLY158     -0.2714
     13  N         10.8190    6.0900    0.2710 N.am  159  GLY159     -0.1939
     14  CA        11.4910    6.5550   -0.9380 C.3   159  GLY159      0.2014
     15  C         11.4910    8.0650   -1.1380 C.2   159  GLY159      0.2639
     16  O         12.3230    8.5970   -1.8750 O.2   159  GLY159     -0.2714
     17  N         10.5710    8.7640   -0.4780 N.am  160  SER160     -0.1949
     18  CA        10.5080   10.2210   -0.5810 C.3   160  SER160      0.1924
     19  C         11.2780   10.9350    0.5400 C.2   160  SER160      0.2314
     20  O         11.1640   12.1590    0.6940 O.2   160  SER160     -0.2863
     21  CB         9.0450   10.6930   -0.6320 C.3   160  SER160      0.2116
     22  OG         8.4150   10.2560   -1.8350 O.3   160  SER160     -0.2180
     23  N          7.1810   15.8830   -0.4290 N.3   209  ALA209     -0.1231
     24  CA         7.6620   14.8580   -1.3480 C.3   209  ALA209      0.1694
     25  C          6.8130   13.5980   -1.2450 C.2   209  ALA209      0.2593
     26  O          6.8180   12.9190   -0.2230 O.2   209  ALA209     -0.2718
     27  CB         9.1260   14.5470   -1.0620 C.3   209  ALA209      0.0304
     28  N          6.0790   13.2920   -2.3100 N.am  210  SER210     -0.1938
     29  CA         5.1810   12.1400   -2.3200 C.3   210  SER210      0.2055
     30  C          4.7730   11.8110   -3.7490 C.2   210  SER210      0.2643
     31  O          4.1110   12.6120   -4.4080 O.2   210  SER210     -0.2714
     32  CB         3.9300   12.4260   -1.4710 C.3   210  SER210      0.2130
     33  OG         3.0440   11.3150   -1.4770 O.3   210  SER210     -0.2179
     34  N          5.1680   10.6310   -4.2170 N.am  211  LYS211     -0.1963
     35  CA         4.7790   10.1460   -5.5400 C.3   211  LYS211      0.1728
     36  C          3.2590   10.1700   -5.7350 C.2   211  LYS211      0.2616
     37  O          2.7620   10.7200   -6.7260 O.2   211  LYS211     -0.2715
     38  CB         5.3250    8.7320   -5.7680 C.3   211  LYS211      0.0311
     39  CG         5.2000    8.2440   -7.2060 C.3   211  LYS211      0.0038
     40  CD         5.8350    6.8690   -7.3770 C.3   211  LYS211      0.0206
     41  CE         5.5860    6.3270   -8.7870 C.3   211  LYS211      0.1093
     42  NZ         6.4120    5.1070   -9.0460 N.3   211  LYS211     -0.1314
     43  N          2.5400    9.5950   -4.7740 N.am  212  THR212     -0.1951
     44  CA         1.0800    9.4830   -4.8360 C.3   212  THR212      0.1897
     45  C          0.3690   10.7400   -4.3520 C.2   212  THR212      0.2313
     46  O         -0.7630   11.0260   -4.7670 O.2   212  THR212     -0.2863
     47  CB         0.5970    8.2860   -3.9970 C.3   212  THR212      0.1794
     48  OG1        1.0840    8.4150   -2.6450 O.3   212  THR212     -0.2208
     49  CG2        1.2040    6.9820   -4.5170 C.3   212  THR212      0.0378
     50  N         -0.1030    9.4480    0.7830 N.3   215  THR215     -0.1218
     51  CA         0.4890    8.7260    1.9170 C.3   215  THR215      0.1862
     52  C          0.1540    9.4010    3.2450 C.2   215  THR215      0.2287
     53  O          0.3880   10.5940    3.4210 O.2   215  THR215     -0.2866
     54  CB         2.0070    8.6280    1.7240 C.3   215  THR215      0.1770
     55  OG1        2.2740    7.9580    0.4810 O.3   215  THR215     -0.2211
     56  CG2        2.6480    7.7330    2.7960 C.3   215  THR215      0.0375
     57  N          2.8150   11.5430    5.2960 N.3   218  THR218     -0.1218
     58  CA         3.2850   12.7290    4.5840 C.3   218  THR218      0.1862
     59  C          2.2120   13.8150    4.4820 C.2   218  THR218      0.2287
     60  O          2.4950   14.9890    4.7280 O.2   218  THR218     -0.2866
     61  CB         3.8130   12.3360    3.1970 C.3   218  THR218      0.1770
     62  OG1        4.8970   11.4140    3.3670 O.3   218  THR218     -0.2211
     63  CG2        4.4600   13.5480    2.4910 C.3   218  THR218      0.0375
     64  N          9.9360    4.6920   -5.8110 N.3   272  GLY272     -0.1210
     65  CA        10.2880    5.5840   -4.7150 C.3   272  GLY272      0.1956
     66  C         11.7140    5.3700   -4.2360 C.2   272  GLY272      0.2611
     67  O         12.4590    6.3270   -4.0200 O.2   272  GLY272     -0.2717
     68  N         12.0960    4.1030   -4.0760 N.am  273  ARG273     -0.1979
     69  CA        13.4220    3.7560   -3.5760 C.3   273  ARG273      0.1597
     70  C         14.5110    3.9260   -4.6430 C.2   273  ARG273      0.2287
     71  O         15.6800    3.6310   -4.3950 O.2   273  ARG273     -0.2864
     72  CB        13.4230    2.3350   -3.0160 C.3   273  ARG273      0.0334
     73  CG        13.1030    1.2500   -4.0370 C.3   273  ARG273      0.0492
     74  CD        12.8490   -0.0910   -3.4000 C.3   273  ARG273      0.2205
     75  NE        12.2480   -1.0660   -4.3090 N.pl3 273  ARG273     -0.0865
     76  CZ        10.9460   -1.2560   -4.4660 C.cat 273  ARG273      0.5346
     77  NH1       10.0610   -0.5200   -3.7940 N.pl3 273  ARG273      0.1354
     78  NH2       10.5240   -2.1850   -5.3140 N.pl3 273  ARG273      0.1354
     79  N         16.5800   -0.1610    2.7450 N.3   354  GLN354     -0.1245
     80  CA        15.3600    0.0140    1.9630 C.3   354  GLN354      0.1566
     81  C         15.5130   -0.4350    0.5060 C.2   354  GLN354      0.2260
     82  O         14.6890   -1.1970   -0.0020 O.2   354  GLN354     -0.2867
     83  CB        14.8550    1.4600    1.9890 C.3   354  GLN354      0.0367
     84  CG        13.6910    1.6600    1.0090 C.3   354  GLN354      0.0905
     85  CD        13.0000    3.0050    1.1190 C.2   354  GLN354      0.2608
     86  OE1       13.5180    3.9400    1.7370 O.2   354  GLN354     -0.2717
     87  NE2       11.8360    3.1090    0.4980 N.am  354  GLN354     -0.0878
     88  N         13.2500   -3.7490    0.1410 N.3   358  GLU358     -0.1245
     89  CA        11.9500   -3.4540   -0.4610 C.3   358  GLU358      0.1567
     90  C         11.8760   -3.9540   -1.9050 C.2   358  GLU358      0.2260
     91  O         10.7940   -4.2820   -2.4000 O.2   358  GLU358     -0.2867
     92  CB        11.6440   -1.9620   -0.3920 C.3   358  GLU358      0.0388
     93  CG        10.1670   -1.6400   -0.5330 C.3   358  GLU358      0.1160
     94  CD         9.9170   -0.1600   -0.7390 C.2   358  GLU358      0.3649
     95  OE1       10.8800    0.6290   -0.6930 O.co2 358  GLU358     -0.2457
     96  OE2        8.7570    0.2080   -0.9660 O.co2 358  GLU358     -0.2457
     97  N          5.9430   -3.4240   -4.6730 N.3   512  GLN512     -0.1245
     98  CA         6.0300   -3.4780   -3.2120 C.3   512  GLN512      0.1566
     99  C          4.6480   -3.6910   -2.5900 C.2   512  GLN512      0.2260
    100  O          4.1330   -2.8460   -1.8650 O.2   512  GLN512     -0.2867
    101  CB         6.7460   -2.2370   -2.6300 C.3   512  GLN512      0.0367
    102  CG         6.1430   -0.8690   -2.9960 C.3   512  GLN512      0.0905
    103  CD         6.4310   -0.4490   -4.4310 C.2   512  GLN512      0.2608
    104  OE1        7.5690   -0.5430   -4.8980 O.2   512  GLN512     -0.2717
    105  NE2        5.3980    0.0100   -5.1320 N.am  512  GLN512     -0.0878
    106  N          4.3090   -3.1700    1.0580 N.3   515  VAL515     -0.1231
    107  CA         4.2670   -1.7520    1.4390 C.3   515  VAL515      0.1692
    108  C          2.8750   -1.1860    1.1490 C.2   515  VAL515      0.2591
    109  O          2.3240   -0.4050    1.9350 O.2   515  VAL515     -0.2718
    110  CB         5.3630   -0.9440    0.6970 C.3   515  VAL515      0.0266
    111  CG1        5.0650    0.5620    0.7060 C.3   515  VAL515      0.0020
    112  CG2        6.7280   -1.2220    1.3130 C.3   515  VAL515      0.0020
    113  N          2.3030   -1.6020    0.0230 N.am  516  GLU516     -0.1979
    114  CA         0.9430   -1.2150   -0.3320 C.3   516  GLU516      0.1602
    115  C         -0.0650   -1.7590    0.6890 C.2   516  GLU516      0.2287
    116  O         -1.0140   -1.0610    1.0450 O.2   516  GLU516     -0.2864
    117  CB         0.5930   -1.6490   -1.7630 C.3   516  GLU516      0.0415
    118  CG         1.5330   -1.1370   -2.8630 C.3   516  GLU516      0.1163
    119  CD         1.9400    0.3300   -2.7210 C.2   516  GLU516      0.3649
    120  OE1        1.0910    1.1800   -2.3520 O.co2 516  GLU516     -0.2457
    121  OE2        3.1210    0.6420   -2.9890 O.co2 516  GLU516     -0.2457
    122  N         -0.1810    0.5230    3.8890 N.3   519  LYS519     -0.1245
    123  CA        -0.9730    1.7340    3.6890 C.3   519  LYS519      0.1561
    124  C         -2.4970    1.5170    3.7370 C.2   519  LYS519      0.2260
    125  O         -3.2650    2.4810    3.6670 O.2   519  LYS519     -0.2867
    126  CB        -0.5810    2.3860    2.3580 C.3   519  LYS519      0.0271
    127  CG         0.9080    2.7020    2.2400 C.3   519  LYS519      0.0035
    128  CD         1.2320    3.3990    0.9290 C.3   519  LYS519      0.0206
    129  CE         2.5140    4.2000    1.0480 C.3   519  LYS519      0.1093
    130  NZ         2.7730    5.0990   -0.1140 N.3   519  LYS519     -0.1314
@<TRIPOS>BOND
     1    42    41    1
     2    41    40    1
     3    40    39    1
     4    39    38    1
     5    37    36    2
     6    64    65    1
     7    38    35    1
     8    36    35    1
     9    36    43   am
    10    35    34    1
    11    78    76    1
    12   105   103   am
    13   104   103    2
    14    44    43    1
    15    44    45    1
    16    44    47    1
    17    46    45    2
    18    65    66    1
    19    97    98    1
    20    70    71    2
    21    70    69    1
    22    49    47    1
    23    76    75    2
    24    76    77    1
    25   103   102    1
    26    31    30    2
    27    75    74    1
    28    66    68   am
    29    66    67    2
    30    34    30   am
    31    68    69    1
    32    73    74    1
    33    73    72    1
    34    47    48    1
    35    30    29    1
    36    69    72    1
    37    98   101    1
    38    98    99    1
    39   102   101    1
    40   121   119   ar
    41   118   119    1
    42   118   117    1
    43   119   120   ar
    44    99   100    2
    45    91    90    2
    46    29    28    1
    47    29    32    1
    48    28    25   am
    49    90    89    1
    50    16    15    2
    51    22    21    1
    52   117   114    1
    53    33    32    1
    54    24    25    1
    55    24    27    1
    56    24    23    1
    57    25    26    2
    58    15    14    1
    59    15    17   am
    60    96    94   ar
    61    14    13    1
    62    94    95   ar
    63    94    93    1
    64    21    18    1
    65    18    17    1
    66    18    19    1
    67    93    92    1
    68    89    92    1
    69    89    88    1
    70   114   113    1
    71   114   115    1
    72   130   129    1
    73    82    81    2
    74   113   108   am
    75    13    11   am
    76    55    54    1
    77    87    85   am
    78    81    80    1
    79    19    20    2
    80   115   116    2
    81   110   111    1
    82   110   112    1
    83   110   107    1
    84    50    51    1
    85   128   129    1
    86   128   127    1
    87    84    85    1
    88    84    83    1
    89   106   107    1
    90    85    86    2
    91   108   107    1
    92   108   109    2
    93    11    12    2
    94    11    10    1
    95    54    51    1
    96    54    56    1
    97     4     3    2
    98    51    52    1
    99    80    83    1
   100    80    79    1
   101   127   126    1
   102   126   123    1
   103    63    61    1
   104    10     9    1
   105     3     9   am
   106     3     2    1
   107    61    62    1
   108    61    58    1
   109    52    53    2
   110     1     2    1
   111   125   124    2
   112   123   124    1
   113   123   122    1
   114     2     5    1
   115     7     5    1
   116    59    58    1
   117    59    60    2
   118    58    57    1
   119     5     6    1
   120     6     8    1
