@<TRIPOS>MOLECULE
tmp/2cxqA00.pdb
 134 124 0 0 0
SMALL
GASTEIGER

@<TRIPOS>ATOM
      1  N          8.2340   10.3520    3.2680 N.3   157  ILE157     -0.1231
      2  CA         8.6020    9.1240    3.9690 C.3   157  ILE157      0.1692
      3  C          9.0600    8.0690    2.9730 C.2   157  ILE157      0.2593
      4  O          8.6880    8.1150    1.7990 O.2   157  ILE157     -0.2718
      5  CB         7.4230    8.6320    4.8660 C.3   157  ILE157      0.0266
      6  CG1        7.8880    7.5720    5.8770 C.3   157  ILE157      0.0019
      7  CG2        6.2470    8.1350    4.0190 C.3   157  ILE157      0.0020
      8  CD1        6.9690    7.4290    7.0760 C.3   157  ILE157      0.0001
      9  N          9.8960    7.1400    3.4390 N.am  158  GLY158     -0.1942
     10  CA        10.3840    6.0570    2.6020 C.3   158  GLY158      0.2014
     11  C         11.1890    6.5770    1.4260 C.2   158  GLY158      0.2639
     12  O         12.1430    7.3280    1.6090 O.2   158  GLY158     -0.2714
     13  N         10.7980    6.1910    0.2140 N.am  159  GLY159     -0.1939
     14  CA        11.4740    6.6450   -0.9890 C.3   159  GLY159      0.2014
     15  C         11.4770    8.1550   -1.1740 C.2   159  GLY159      0.2639
     16  O         12.3190    8.6940   -1.9000 O.2   159  GLY159     -0.2714
     17  N         10.5430    8.8430   -0.5160 N.am  160  SER160     -0.1949
     18  CA        10.4650   10.3000   -0.6040 C.3   160  SER160      0.1924
     19  C         11.2270   10.9970    0.5270 C.2   160  SER160      0.2314
     20  O         11.1200   12.2120    0.7050 O.2   160  SER160     -0.2863
     21  CB         9.0050   10.7500   -0.6300 C.3   160  SER160      0.2116
     22  OG         8.3970   10.3800   -1.8520 O.3   160  SER160     -0.2180
     23  N          7.2190   16.0380   -0.4530 N.3   209  ALA209     -0.1231
     24  CA         7.7140   15.0150   -1.3580 C.3   209  ALA209      0.1694
     25  C          6.8430   13.7730   -1.2660 C.2   209  ALA209      0.2593
     26  O          6.8340   13.0920   -0.2370 O.2   209  ALA209     -0.2718
     27  CB         9.1550   14.6790   -1.0060 C.3   209  ALA209      0.0304
     28  N          6.1000   13.4870   -2.3320 N.am  210  SER210     -0.1938
     29  CA         5.1840   12.3510   -2.3360 C.3   210  SER210      0.2055
     30  C          4.7560   12.0090   -3.7490 C.2   210  SER210      0.2643
     31  O          4.0730   12.8000   -4.4030 O.2   210  SER210     -0.2714
     32  CB         3.9430   12.6610   -1.4940 C.3   210  SER210      0.2130
     33  OG         3.0750   11.5450   -1.4540 O.3   210  SER210     -0.2179
     34  N          5.1500   10.8250   -4.2060 N.am  211  LYS211     -0.1963
     35  CA         4.7630   10.3300   -5.5260 C.3   211  LYS211      0.1728
     36  C          3.2460   10.3490   -5.7170 C.2   211  LYS211      0.2616
     37  O          2.7460   10.9010   -6.7010 O.2   211  LYS211     -0.2715
     38  CB         5.3220    8.9220   -5.7560 C.3   211  LYS211      0.0311
     39  CG         5.1060    8.3900   -7.1690 C.3   211  LYS211      0.0038
     40  CD         5.7800    7.0470   -7.3740 C.3   211  LYS211      0.0206
     41  CE         5.5600    6.5300   -8.7900 C.3   211  LYS211      0.1093
     42  NZ         6.3290    5.2720   -9.0410 N.3   211  LYS211     -0.1314
     43  N          2.5280    9.7710   -4.7570 N.am  212  THR212     -0.1951
     44  CA         1.0680    9.6770   -4.8200 C.3   212  THR212      0.1897
     45  C          0.3680   10.9340   -4.3290 C.2   212  THR212      0.2313
     46  O         -0.7550   11.2250   -4.7500 O.2   212  THR212     -0.2863
     47  CB         0.5650    8.4980   -3.9750 C.3   212  THR212      0.1794
     48  OG1        1.0940    8.6050   -2.6420 O.3   212  THR212     -0.2208
     49  CG2        1.0990    7.1710   -4.5060 C.3   212  THR212      0.0378
     50  N         -0.1190    9.6520    0.7980 N.3   215  THR215     -0.1218
     51  CA         0.4480    8.9190    1.9290 C.3   215  THR215      0.1862
     52  C          0.0980    9.6010    3.2430 C.2   215  THR215      0.2287
     53  O          0.3180   10.7990    3.3990 O.2   215  THR215     -0.2866
     54  CB         1.9680    8.8330    1.7620 C.3   215  THR215      0.1770
     55  OG1        2.2570    8.1430    0.5430 O.3   215  THR215     -0.2211
     56  CG2        2.6050    7.9670    2.8570 C.3   215  THR215      0.0375
     57  N          2.8120   11.6530    5.2990 N.3   218  THR218     -0.1218
     58  CA         3.2780   12.8330    4.5830 C.3   218  THR218      0.1862
     59  C          2.2220   13.9250    4.4960 C.2   218  THR218      0.2287
     60  O          2.5080   15.0930    4.7570 O.2   218  THR218     -0.2866
     61  CB         3.7700   12.4170    3.2050 C.3   218  THR218      0.1770
     62  OG1        4.8640   11.5070    3.3860 O.3   218  THR218     -0.2211
     63  CG2        4.3880   13.5960    2.4580 C.3   218  THR218      0.0375
     64  N         10.3950    4.5150   -9.4730 N.3   271  GLY271     -0.1210
     65  CA        10.1050    3.9100   -8.1810 C.3   271  GLY271      0.1956
     66  C         10.5890    4.8050   -7.0540 C.2   271  GLY271      0.2612
     67  O         11.6340    5.4460   -7.1800 O.2   271  GLY271     -0.2717
     68  N          9.8410    4.8620   -5.9540 N.am  272  GLY272     -0.1942
     69  CA        10.2070    5.7340   -4.8460 C.3   272  GLY272      0.2014
     70  C         11.6160    5.4870   -4.3330 C.2   272  GLY272      0.2638
     71  O         12.3870    6.4250   -4.1070 O.2   272  GLY272     -0.2714
     72  N         11.9620    4.2170   -4.1550 N.am  273  ARG273     -0.1977
     73  CA        13.2830    3.8570   -3.6590 C.3   273  ARG273      0.1597
     74  C         14.3840    4.0100   -4.7180 C.2   273  ARG273      0.2287
     75  O         15.5490    3.6800   -4.4630 O.2   273  ARG273     -0.2864
     76  CB        13.2630    2.4490   -3.0650 C.3   273  ARG273      0.0334
     77  CG        12.9630    1.3460   -4.0620 C.3   273  ARG273      0.0492
     78  CD        12.7410   -0.0020   -3.4030 C.3   273  ARG273      0.2205
     79  NE        12.2200   -1.0040   -4.3330 N.pl3 273  ARG273     -0.0865
     80  CZ        10.9300   -1.2160   -4.5720 C.cat 273  ARG273      0.5346
     81  NH1        9.9960   -0.4940   -3.9560 N.pl3 273  ARG273      0.1354
     82  NH2       10.5750   -2.1540   -5.4360 N.pl3 273  ARG273      0.1354
     83  N         16.6340   -0.1420    2.7090 N.3   354  GLN354     -0.1245
     84  CA        15.4010    0.0580    1.9560 C.3   354  GLN354      0.1566
     85  C         15.5240   -0.4300    0.5080 C.2   354  GLN354      0.2260
     86  O         14.7330   -1.2530    0.0550 O.2   354  GLN354     -0.2867
     87  CB        14.9410    1.5170    1.9680 C.3   354  GLN354      0.0367
     88  CG        13.8120    1.7430    0.9620 C.3   354  GLN354      0.0905
     89  CD        13.0430    3.0280    1.1470 C.2   354  GLN354      0.2608
     90  OE1       13.5380    3.9810    1.7400 O.2   354  GLN354     -0.2717
     91  NE2       11.8260    3.0590    0.6160 N.am  354  GLN354     -0.0878
     92  N         13.3120   -3.7800    0.1090 N.3   358  GLU358     -0.1245
     93  CA        12.0150   -3.4790   -0.4980 C.3   358  GLU358      0.1567
     94  C         11.9240   -3.9720   -1.9430 C.2   358  GLU358      0.2260
     95  O         10.8400   -4.3190   -2.4250 O.2   358  GLU358     -0.2867
     96  CB        11.7190   -1.9840   -0.4190 C.3   358  GLU358      0.0388
     97  CG        10.2580   -1.6330   -0.6410 C.3   358  GLU358      0.1160
     98  CD        10.0520   -0.1510   -0.8610 C.2   358  GLU358      0.3649
     99  OE1       10.8550    0.6540   -0.3520 O.co2 358  GLU358     -0.2457
    100  OE2        9.0890    0.2060   -1.5640 O.co2 358  GLU358     -0.2457
    101  N          5.9470   -3.2400   -4.7470 N.3   512  GLN512     -0.1245
    102  CA         6.0330   -3.3380   -3.2900 C.3   512  GLN512      0.1566
    103  C          4.6490   -3.5510   -2.6760 C.2   512  GLN512      0.2260
    104  O          4.1350   -2.7130   -1.9410 O.2   512  GLN512     -0.2867
    105  CB         6.7850   -2.1340   -2.6740 C.3   512  GLN512      0.0367
    106  CG         6.1790   -0.7540   -2.9430 C.3   512  GLN512      0.0905
    107  CD         6.3430   -0.2840   -4.3720 C.2   512  GLN512      0.2608
    108  OE1        7.4280   -0.3700   -4.9450 O.2   512  GLN512     -0.2717
    109  NE2        5.2600    0.2260   -4.9510 N.am  512  GLN512     -0.0878
    110  N          4.3510   -3.1120    1.0390 N.3   515  VAL515     -0.1231
    111  CA         4.3440   -1.6980    1.4140 C.3   515  VAL515      0.1692
    112  C          2.9590   -1.1120    1.1180 C.2   515  VAL515      0.2591
    113  O          2.4170   -0.3290    1.9120 O.2   515  VAL515     -0.2718
    114  CB         5.4660   -0.9260    0.6670 C.3   515  VAL515      0.0266
    115  CG1        5.2580    0.5640    0.7340 C.3   515  VAL515      0.0020
    116  CG2        6.8360   -1.2870    1.2310 C.3   515  VAL515      0.0020
    117  N          2.3860   -1.5220   -0.0140 N.am  516  GLU516     -0.1979
    118  CA         1.0270   -1.1330   -0.3970 C.3   516  GLU516      0.1602
    119  C         -0.0090   -1.6370    0.6050 C.2   516  GLU516      0.2287
    120  O         -0.9960   -0.9480    0.8720 O.2   516  GLU516     -0.2864
    121  CB         0.6760   -1.6360   -1.8060 C.3   516  GLU516      0.0415
    122  CG         1.4950   -1.0560   -2.9590 C.3   516  GLU516      0.1163
    123  CD         1.7910    0.4290   -2.8270 C.2   516  GLU516      0.3649
    124  OE1        0.8610    1.2150   -2.5380 O.co2 516  GLU516     -0.2457
    125  OE2        2.9660    0.8090   -3.0240 O.co2 516  GLU516     -0.2457
    126  N         -0.2040    0.5540    3.8420 N.3   519  LYS519     -0.1245
    127  CA        -0.9850    1.7730    3.6760 C.3   519  LYS519      0.1561
    128  C         -2.5030    1.5320    3.7290 C.2   519  LYS519      0.2260
    129  O         -3.2830    2.4850    3.7140 O.2   519  LYS519     -0.2867
    130  CB        -0.6000    2.4580    2.3620 C.3   519  LYS519      0.0271
    131  CG         0.8990    2.7290    2.2170 C.3   519  LYS519      0.0035
    132  CD         1.2070    3.4750    0.9330 C.3   519  LYS519      0.0206
    133  CE         1.8340    4.8300    1.2410 C.3   519  LYS519      0.1093
    134  NZ         2.7820    5.3160    0.1930 N.3   519  LYS519     -0.1314
@<TRIPOS>BOND
     1    64    65    1
     2    42    41    1
     3    41    40    1
     4    65    66    1
     5    40    39    1
     6    67    66    2
     7    39    38    1
     8    66    68   am
     9    37    36    2
    10    68    69    1
    11    38    35    1
    12    36    35    1
    13    36    43   am
    14    35    34    1
    15    82    80    1
    16   109   107   am
    17   108   107    2
    18    69    70    1
    19    44    43    1
    20    44    45    1
    21    44    47    1
    22    46    45    2
    23   101   102    1
    24    74    75    2
    25    74    73    1
    26    80    79    2
    27    80    81    1
    28    49    47    1
    29    31    30    2
    30   107   106    1
    31    70    72   am
    32    70    71    2
    33    79    78    1
    34    34    30   am
    35    72    73    1
    36    77    78    1
    37    77    76    1
    38    47    48    1
    39    30    29    1
    40    73    76    1
    41   102   103    1
    42   102   105    1
    43   125   123   ar
    44   122   123    1
    45   122   121    1
    46   106   105    1
    47   123   124   ar
    48   103   104    2
    49    95    94    2
    50    29    28    1
    51    29    32    1
    52    28    25   am
    53    94    93    1
    54    16    15    2
    55    22    21    1
    56   121   118    1
    57   100    98   ar
    58    32    33    1
    59    24    25    1
    60    24    27    1
    61    24    23    1
    62    25    26    2
    63    15    14    1
    64    15    17   am
    65    14    13    1
    66    98    97    1
    67    98    99   ar
    68    97    96    1
    69    21    18    1
    70    18    17    1
    71    18    19    1
    72    93    96    1
    73    93    92    1
    74   118   117    1
    75   118   119    1
    76   117   112   am
    77    86    85    2
    78   134   133    1
    79    13    11   am
    80    85    84    1
    81    19    20    2
    82    55    54    1
    83   119   120    2
    84    91    89   am
    85   114   115    1
    86   114   116    1
    87   114   111    1
    88    50    51    1
    89   132   133    1
    90   132   131    1
    91    88    89    1
    92    88    87    1
    93   110   111    1
    94   112   111    1
    95   112   113    2
    96    89    90    2
    97    11    12    2
    98    11    10    1
    99    54    51    1
   100    54    56    1
   101     4     3    2
   102    51    52    1
   103    84    87    1
   104    84    83    1
   105   131   130    1
   106   130   127    1
   107    63    61    1
   108    10     9    1
   109     3     9   am
   110     3     2    1
   111    61    62    1
   112    61    58    1
   113    52    53    2
   114     1     2    1
   115   127   128    1
   116   127   126    1
   117   129   128    2
   118     2     5    1
   119     7     5    1
   120    59    58    1
   121    59    60    2
   122    58    57    1
   123     5     6    1
   124     6     8    1
