@<TRIPOS>MOLECULE
tmp/2cxsA00.pdb
 121 111 0 0 0
SMALL
GASTEIGER

@<TRIPOS>ATOM
      1  N          8.3690   10.3750    3.3160 N.3   157  ILE157     -0.1231
      2  CA         8.7140    9.1330    4.0030 C.3   157  ILE157      0.1692
      3  C          9.1730    8.0770    2.9980 C.2   157  ILE157      0.2593
      4  O          8.8060    8.1270    1.8240 O.2   157  ILE157     -0.2718
      5  CB         7.5250    8.6450    4.8940 C.3   157  ILE157      0.0266
      6  CG1        7.9960    7.6080    5.9250 C.3   157  ILE157      0.0019
      7  CG2        6.3590    8.1280    4.0490 C.3   157  ILE157      0.0020
      8  CD1        7.1040    7.5210    7.1610 C.3   157  ILE157      0.0001
      9  N         10.0040    7.1450    3.4600 N.am  158  GLY158     -0.1942
     10  CA        10.5020    6.0860    2.6010 C.3   158  GLY158      0.2014
     11  C         11.3120    6.6410    1.4460 C.2   158  GLY158      0.2639
     12  O         12.2970    7.3500    1.6510 O.2   158  GLY158     -0.2714
     13  N         10.8940    6.3160    0.2250 N.am  159  GLY159     -0.1939
     14  CA        11.6080    6.7500   -0.9670 C.3   159  GLY159      0.2014
     15  C         11.6290    8.2590   -1.1430 C.2   159  GLY159      0.2639
     16  O         12.4770    8.7930   -1.8580 O.2   159  GLY159     -0.2714
     17  N         10.7050    8.9480   -0.4770 N.am  160  SER160     -0.1949
     18  CA        10.6340   10.4020   -0.5490 C.3   160  SER160      0.1924
     19  C         11.4140   11.0660    0.5920 C.2   160  SER160      0.2314
     20  O         11.3600   12.2840    0.7580 O.2   160  SER160     -0.2863
     21  CB         9.1720   10.8610   -0.5580 C.3   160  SER160      0.2116
     22  OG         8.5190   10.4490   -1.7490 O.3   160  SER160     -0.2180
     23  N          7.2450   16.0090   -0.3630 N.3   209  ALA209     -0.1231
     24  CA         7.7560   15.0020   -1.2800 C.3   209  ALA209      0.1694
     25  C          6.9300   13.7370   -1.1550 C.2   209  ALA209      0.2593
     26  O          6.9410   13.0830   -0.1130 O.2   209  ALA209     -0.2718
     27  CB         9.2140   14.7170   -0.9630 C.3   209  ALA209      0.0304
     28  N          6.2000   13.4060   -2.2150 N.am  210  SER210     -0.1938
     29  CA         5.3500   12.2250   -2.2100 C.3   210  SER210      0.2055
     30  C          4.9420   11.8780   -3.6300 C.2   210  SER210      0.2643
     31  O          4.2750   12.6670   -4.2910 O.2   210  SER210     -0.2714
     32  CB         4.0990   12.4670   -1.3570 C.3   210  SER210      0.2130
     33  OG         3.2660   11.3230   -1.3500 O.3   210  SER210     -0.2179
     34  N          5.3440   10.6950   -4.0860 N.am  211  LYS211     -0.1963
     35  CA         4.9780   10.2200   -5.4170 C.3   211  LYS211      0.1728
     36  C          3.4630   10.2310   -5.6210 C.2   211  LYS211      0.2616
     37  O          2.9680   10.7750   -6.6110 O.2   211  LYS211     -0.2715
     38  CB         5.5530    8.8240   -5.6730 C.3   211  LYS211      0.0311
     39  CG         5.2940    8.3150   -7.0800 C.3   211  LYS211      0.0038
     40  CD         5.9740    6.9890   -7.3350 C.3   211  LYS211      0.0206
     41  CE         5.6970    6.5190   -8.7570 C.3   211  LYS211      0.1093
     42  NZ         6.3620    5.2190   -9.0350 N.3   211  LYS211     -0.1314
     43  N          2.7380    9.6470   -4.6700 N.am  212  THR212     -0.1951
     44  CA         1.2800    9.5520   -4.7430 C.3   212  THR212      0.1897
     45  C          0.5750   10.8140   -4.2680 C.2   212  THR212      0.2313
     46  O         -0.5430   11.1040   -4.7010 O.2   212  THR212     -0.2863
     47  CB         0.7670    8.3780   -3.8890 C.3   212  THR212      0.1794
     48  OG1        1.2850    8.4900   -2.5520 O.3   212  THR212     -0.2208
     49  CG2        1.3000    7.0510   -4.4040 C.3   212  THR212      0.0378
     50  N          0.0350    9.5840    0.8490 N.3   215  THR215     -0.1218
     51  CA         0.5940    8.8600    1.9870 C.3   215  THR215      0.1862
     52  C          0.2090    9.5600    3.2810 C.2   215  THR215      0.2287
     53  O          0.4410   10.7570    3.4330 O.2   215  THR215     -0.2866
     54  CB         2.1040    8.7920    1.8420 C.3   215  THR215      0.1770
     55  OG1        2.4070    8.0580    0.6510 O.3   215  THR215     -0.2211
     56  CG2        2.7300    7.9610    2.9690 C.3   215  THR215      0.0375
     57  N          2.8890   11.6350    5.3610 N.3   218  THR218     -0.1218
     58  CA         3.3570   12.8220    4.6560 C.3   218  THR218      0.1862
     59  C          2.3020   13.9150    4.5500 C.2   218  THR218      0.2287
     60  O          2.5910   15.0870    4.8210 O.2   218  THR218     -0.2866
     61  CB         3.8780   12.4140    3.2760 C.3   218  THR218      0.1770
     62  OG1        4.9810   11.5180    3.4650 O.3   218  THR218     -0.2211
     63  CG2        4.4970   13.6010    2.5480 C.3   218  THR218      0.0375
     64  N          9.8710    4.8450   -6.0030 N.3   272  GLY272     -0.1210
     65  CA        10.2070    5.6810   -4.8590 C.3   272  GLY272      0.1956
     66  C         11.6270    5.4730   -4.3550 C.2   272  GLY272      0.2611
     67  O         12.3710    6.4310   -4.1130 O.2   272  GLY272     -0.2717
     68  N         12.0120    4.2090   -4.2050 N.am  273  ARG273     -0.1979
     69  CA        13.3450    3.8700   -3.7200 C.3   273  ARG273      0.1597
     70  C         14.4390    4.0300   -4.7880 C.2   273  ARG273      0.2287
     71  O         15.6040    3.7010   -4.5460 O.2   273  ARG273     -0.2864
     72  CB        13.3540    2.4640   -3.1110 C.3   273  ARG273      0.0334
     73  CG        13.0000    1.3550   -4.0770 C.3   273  ARG273      0.0492
     74  CD        12.6180    0.0610   -3.3810 C.3   273  ARG273      0.2205
     75  NE        12.0660   -0.9140   -4.3210 N.pl3 273  ARG273     -0.0865
     76  CZ        10.7680   -1.1200   -4.5070 C.cat 273  ARG273      0.5346
     77  NH1        9.8620   -0.4380   -3.8100 N.pl3 273  ARG273      0.1354
     78  NH2       10.3670   -2.0240   -5.3890 N.pl3 273  ARG273      0.1354
     79  N         15.9050    0.0760    2.3160 N.3   354  GLN354     -0.1245
     80  CA        14.7770    0.1910    1.3970 C.3   354  GLN354      0.1566
     81  C         15.1440   -0.3160    0.0120 C.2   354  GLN354      0.2260
     82  O         14.4470   -1.1530   -0.5440 O.2   354  GLN354     -0.2867
     83  CB        14.2030    1.6110    1.2840 C.3   354  GLN354      0.0367
     84  CG        12.9030    1.6130    0.4590 C.3   354  GLN354      0.0905
     85  CD        12.2780    2.9830    0.2600 C.2   354  GLN354      0.2608
     86  OE1       12.8760    4.0020    0.5890 O.2   354  GLN354     -0.2717
     87  NE2       11.0690    3.0020   -0.2930 N.am  354  GLN354     -0.0878
     88  N         13.0830   -3.6230    0.0550 N.3   358  GLU358     -0.1245
     89  CA        11.7770   -3.3730   -0.5560 C.3   358  GLU358      0.1567
     90  C         11.7290   -3.8730   -1.9990 C.2   358  GLU358      0.2260
     91  O         10.6580   -4.2200   -2.5090 O.2   358  GLU358     -0.2867
     92  CB        11.3520   -1.9010   -0.4680 C.3   358  GLU358      0.0388
     93  CG         9.8400   -1.7320   -0.5660 C.3   358  GLU358      0.1160
     94  CD         9.3520   -0.3210   -0.3150 C.2   358  GLU358      0.3649
     95  OE1        9.6420    0.5660   -1.1420 O.co2 358  GLU358     -0.2457
     96  OE2        8.6520   -0.1030    0.7010 O.co2 358  GLU358     -0.2457
     97  N          5.7600   -3.2130   -4.7670 N.3   512  GLN512     -0.1245
     98  CA         5.8050   -3.2880   -3.3030 C.3   512  GLN512      0.1566
     99  C          4.4080   -3.5310   -2.7280 C.2   512  GLN512      0.2260
    100  O          3.8780   -2.7300   -1.9590 O.2   512  GLN512     -0.2867
    101  CB         6.4800   -2.0430   -2.6810 C.3   512  GLN512      0.0367
    102  CG         5.8560   -0.6840   -3.0390 C.3   512  GLN512      0.0905
    103  CD         6.1960   -0.2210   -4.4450 C.2   512  GLN512      0.2608
    104  OE1        7.3410   -0.3330   -4.8850 O.2   512  GLN512     -0.2717
    105  NE2        5.2000    0.2910   -5.1550 N.am  512  GLN512     -0.0878
    106  N          3.1670   -3.7380    1.4300 N.3   515  VAL515     -0.1245
    107  CA         2.8800   -2.6500    2.3640 C.3   515  VAL515      0.1561
    108  C          1.3790   -2.3700    2.5180 C.2   515  VAL515      0.2260
    109  O          0.9760   -1.6210    3.4050 O.2   515  VAL515     -0.2867
    110  CB         3.6210   -1.3420    1.9750 C.3   515  VAL515      0.0252
    111  CG1        5.1310   -1.5670    1.9330 C.3   515  VAL515      0.0019
    112  CG2        3.1060   -0.7900    0.6470 C.3   515  VAL515      0.0019
    113  N         -1.4060   -0.8090    5.9870 N.3   519  LYS519     -0.1245
    114  CA        -2.1360    0.4440    5.7710 C.3   519  LYS519      0.1561
    115  C         -3.6420    0.2590    5.9930 C.2   519  LYS519      0.2260
    116  O         -4.2840    1.0870    6.6390 O.2   519  LYS519     -0.2867
    117  CB        -1.8890    1.0020    4.3630 C.3   519  LYS519      0.0271
    118  CG        -0.4870    1.5540    4.1230 C.3   519  LYS519      0.0035
    119  CD        -0.3230    2.0140    2.6800 C.3   519  LYS519      0.0206
    120  CE         1.1130    2.4240    2.3860 C.3   519  LYS519      0.1093
    121  NZ         1.2420    2.9050    0.9780 N.3   519  LYS519     -0.1314
@<TRIPOS>BOND
     1    42    41    1
     2    41    40    1
     3    40    39    1
     4    39    38    1
     5    37    36    2
     6    64    65    1
     7    38    35    1
     8    36    35    1
     9    36    43   am
    10    35    34    1
    11    78    76    1
    12   105   103   am
    13   104   103    2
    14    65    66    1
    15    70    71    2
    16    70    69    1
    17    97    98    1
    18    44    43    1
    19    44    45    1
    20    44    47    1
    21    46    45    2
    22    76    75    2
    23    76    77    1
    24   103   102    1
    25    49    47    1
    26    66    68   am
    27    66    67    2
    28    75    74    1
    29    31    30    2
    30    68    69    1
    31    34    30   am
    32    73    74    1
    33    73    72    1
    34    47    48    1
    35    69    72    1
    36    30    29    1
    37    98    99    1
    38    98   101    1
    39   102   101    1
    40    99   100    2
    41    91    90    2
    42    28    29    1
    43    28    25   am
    44    29    32    1
    45    90    89    1
    46    16    15    2
    47    22    21    1
    48    32    33    1
    49    24    25    1
    50    24    27    1
    51    24    23    1
    52    25    26    2
    53    15    14    1
    54    15    17   am
    55    95    94   ar
    56    14    13    1
    57    93    92    1
    58    93    94    1
    59    21    18    1
    60    89    92    1
    61    89    88    1
    62    18    17    1
    63    18    19    1
    64    82    81    2
    65    94    96   ar
    66    87    85   am
    67    81    80    1
    68    13    11   am
    69    85    84    1
    70    85    86    2
    71    84    83    1
    72    19    20    2
    73   112   110    1
    74    55    54    1
    75    50    51    1
    76   121   120    1
    77    83    80    1
    78    80    79    1
    79   106   107    1
    80    11    12    2
    81    11    10    1
    82     4     3    2
    83    54    51    1
    84    54    56    1
    85   111   110    1
    86   110   107    1
    87    51    52    1
    88   107   108    1
    89   120   119    1
    90   108   109    2
    91    63    61    1
    92    10     9    1
    93   119   118    1
    94     3     9   am
    95     3     2    1
    96    61    62    1
    97    61    58    1
    98    52    53    2
    99     1     2    1
   100     2     5    1
   101     7     5    1
   102   118   117    1
   103   117   114    1
   104    59    58    1
   105    59    60    2
   106    58    57    1
   107     5     6    1
   108   114   113    1
   109   114   115    1
   110     6     8    1
   111   115   116    2
