@<TRIPOS>MOLECULE
tmp/2cxxA00.pdb
 134 129 0 0 0
SMALL
GASTEIGER

@<TRIPOS>ATOM
      1  N        -30.7770   23.1200   42.8780 N.3     8  ARG8       -0.1231
      2  CA       -31.1190   24.2640   43.7280 C.3     8  ARG8        0.1694
      3  C        -30.2080   24.2660   44.9490 C.2     8  ARG8        0.2593
      4  O        -29.6660   23.2350   45.3890 O.2     8  ARG8       -0.2718
      5  CB       -32.6030   24.1620   44.1650 C.3     8  ARG8        0.0321
      6  CG       -33.5420   24.4000   42.9970 C.3     8  ARG8        0.0489
      7  CD       -35.0330   24.2440   43.3280 C.3     8  ARG8        0.2205
      8  NE       -35.2420   23.0860   44.1810 N.pl3   8  ARG8       -0.0865
      9  CZ       -35.3240   23.1180   45.5180 C.cat   8  ARG8        0.5346
     10  NH1      -35.2690   24.2480   46.2100 N.pl3   8  ARG8        0.1354
     11  NH2      -35.2540   21.9970   46.2080 N.pl3   8  ARG8        0.1354
     12  N        -30.0120   25.4380   45.5060 N.am    9  SER9       -0.1938
     13  CA       -29.1930   25.5520   46.6850 C.3     9  SER9        0.2055
     14  C        -29.7540   24.6880   47.8400 C.2     9  SER9        0.2643
     15  O        -30.9440   24.6040   48.0510 O.2     9  SER9       -0.2714
     16  CB       -29.1460   27.0410   47.1510 C.3     9  SER9        0.2130
     17  OG       -28.4240   27.1240   48.3640 O.3     9  SER9       -0.2179
     18  N        -28.8470   24.0680   48.5580 N.am   10  ASN10      -0.1957
     19  CA       -29.0950   23.2410   49.7280 C.3    10  ASN10       0.1819
     20  C        -29.6710   21.8550   49.4430 C.2    10  ASN10       0.2621
     21  O        -30.1760   21.1920   50.3770 O.2    10  ASN10      -0.2715
     22  CB       -29.9710   23.9970   50.7470 C.3    10  ASN10       0.1195
     23  CG       -29.4720   23.8020   52.1950 C.2    10  ASN10       0.2630
     24  OD1      -28.3220   24.1860   52.5470 O.2    10  ASN10      -0.2716
     25  ND2      -30.3010   23.1630   53.0160 N.am   10  ASN10      -0.0877
     26  N        -29.5660   21.3640   48.1950 N.am   11  VAL11      -0.1963
     27  CA       -30.1370   20.0100   47.8900 C.3    11  VAL11       0.1727
     28  C        -29.1020   18.9420   48.2160 C.2    11  VAL11       0.2617
     29  O        -29.4160   17.7490   48.1800 O.2    11  VAL11      -0.2715
     30  CB       -30.5730   19.8530   46.3760 C.3    11  VAL11       0.0290
     31  CG1      -31.7290   20.8530   46.0190 C.3    11  VAL11       0.0023
     32  CG2      -29.3620   20.0940   45.4130 C.3    11  VAL11       0.0023
     33  N        -27.8520   19.3740   48.4150 N.am   12  GLY12      -0.1940
     34  CA       -26.7290   18.5020   48.7290 C.3    12  GLY12       0.2014
     35  C        -25.7450   18.2880   47.5810 C.2    12  GLY12       0.2639
     36  O        -25.0520   17.3000   47.5250 O.2    12  GLY12      -0.2714
     37  N        -25.6970   19.2190   46.6570 N.am   13  LYS13      -0.1963
     38  CA       -24.7910   19.0880   45.5180 C.3    13  LYS13       0.1728
     39  C        -23.3330   19.1010   45.8980 C.2    13  LYS13       0.2617
     40  O        -22.5710   18.2180   45.4550 O.2    13  LYS13      -0.2715
     41  CB       -25.1250   20.1870   44.5220 C.3    13  LYS13       0.0311
     42  CG       -24.1980   20.2310   43.3000 C.3    13  LYS13       0.0038
     43  CD       -24.8530   21.0760   42.1470 C.3    13  LYS13       0.0206
     44  CE       -25.0290   22.5470   42.4870 C.3    13  LYS13       0.1093
     45  NZ       -23.6800   23.1210   42.7870 N.3    13  LYS13      -0.1314
     46  N        -22.8950   20.0620   46.7200 N.am   14  SER14      -0.1936
     47  CA       -21.4750   20.0710   47.1010 C.3    14  SER14       0.2055
     48  C        -21.1580   18.8010   47.9100 C.2    14  SER14       0.2643
     49  O        -20.0610   18.2370   47.7530 O.2    14  SER14      -0.2714
     50  CB       -21.1090   21.3330   47.9020 C.3    14  SER14       0.2130
     51  OG       -21.9100   21.3940   49.0670 O.3    14  SER14      -0.2179
     52  N        -22.0590   18.3510   48.7950 N.am   15  THR15      -0.1950
     53  CA       -21.8520   17.0920   49.5120 C.3    15  THR15       0.1897
     54  C        -21.7040   15.8920   48.5390 C.2    15  THR15       0.2313
     55  O        -20.8050   15.0390   48.6700 O.2    15  THR15      -0.2863
     56  CB       -23.0310   16.7750   50.4920 C.3    15  THR15       0.1794
     57  OG1      -23.1540   17.8370   51.4550 O.3    15  THR15      -0.2208
     58  CG2      -22.7020   15.5040   51.2890 C.3    15  THR15       0.0378
     59  N        -16.7720   24.4840   47.5800 N.3    26  ARG26      -0.1231
     60  CA       -17.7110   25.4570   48.1110 C.3    26  ARG26       0.1694
     61  C        -17.8420   25.4300   49.6390 C.2    26  ARG26       0.2591
     62  O        -18.9240   25.6350   50.2010 O.2    26  ARG26      -0.2718
     63  CB       -19.0570   25.2500   47.4240 C.3    26  ARG26       0.0321
     64  CG       -18.9300   25.4350   45.8990 C.3    26  ARG26       0.0489
     65  CD       -20.2880   25.5700   45.2550 C.3    26  ARG26       0.2205
     66  NE       -20.2180   25.6210   43.8000 N.pl3  26  ARG26      -0.0865
     67  CZ       -19.9860   26.7250   43.1030 C.cat  26  ARG26       0.5346
     68  NH1      -19.7900   27.8880   43.7200 N.pl3  26  ARG26       0.1354
     69  NH2      -19.9770   26.6660   41.7730 N.pl3  26  ARG26       0.1354
     70  N        -16.7290   25.2030   50.3190 N.am   27  ARG27      -0.1980
     71  CA       -16.7880   25.2110   51.7740 C.3    27  ARG27       0.1597
     72  C        -16.1490   26.4730   52.3790 C.2    27  ARG27       0.2287
     73  O        -16.0010   26.5790   53.5960 O.2    27  ARG27      -0.2864
     74  CB       -16.1720   23.9230   52.3240 C.3    27  ARG27       0.0334
     75  CG       -17.1630   22.7530   52.2330 C.3    27  ARG27       0.0492
     76  CD       -18.4170   23.0850   53.0890 C.3    27  ARG27       0.2205
     77  NE       -19.4580   22.0670   52.9640 N.pl3  27  ARG27      -0.0865
     78  CZ       -20.3280   22.0160   51.9590 C.cat  27  ARG27       0.5346
     79  NH1      -20.2690   22.9360   51.0010 N.pl3  27  ARG27       0.1354
     80  NH2      -21.2370   21.0350   51.8990 N.pl3  27  ARG27       0.1354
     81  N        -31.5400   13.1160   45.8590 N.3   126  ASN126     -0.1225
     82  CA       -30.8060   13.1080   47.1020 C.3   126  ASN126      0.1785
     83  C        -31.6960   13.1950   48.3230 C.2   126  ASN126      0.2597
     84  O        -32.8820   13.5240   48.2320 O.2   126  ASN126     -0.2718
     85  CB       -29.7830   14.2590   47.0910 C.3   126  ASN126      0.1169
     86  CG       -28.6980   14.0980   48.1640 C.2   126  ASN126      0.2627
     87  OD1      -28.2830   12.9850   48.4450 O.2   126  ASN126     -0.2716
     88  ND2      -28.2090   15.2010   48.7280 N.am  126  ASN126     -0.0877
     89  N        -31.0810   12.8710   49.4450 N.am  127  LYS127     -0.1980
     90  CA       -31.7060   12.8690   50.7830 C.3   127  LYS127      0.1596
     91  C        -32.6740   11.7090   50.9060 C.2   127  LYS127      0.2287
     92  O        -33.7170   11.7770   51.5650 O.2   127  LYS127     -0.2864
     93  CB       -32.4070   14.1880   51.0830 C.3   127  LYS127      0.0298
     94  CG       -31.4390   15.4040   50.8680 C.3   127  LYS127      0.0038
     95  CD       -31.9470   16.6630   51.5670 C.3   127  LYS127      0.0206
     96  CE       -31.0390   17.9170   51.3400 C.3   127  LYS127      0.1093
     97  NZ       -31.7710   19.1510   51.8330 N.3   127  LYS127     -0.1314
     98  N        -32.6360    9.2890   52.6900 N.3   129  ASP129     -0.1225
     99  CA       -32.8580    8.9340   54.0810 C.3   129  ASP129      0.1805
    100  C        -34.0530    9.6820   54.7130 C.2   129  ASP129      0.2597
    101  O        -34.5430    9.3010   55.7770 O.2   129  ASP129     -0.2718
    102  CB       -31.5490    9.1990   54.8480 C.3   129  ASP129      0.1424
    103  CG       -31.0470   10.6160   54.6710 C.2   129  ASP129      0.3668
    104  OD1      -30.5650   10.9550   53.5660 O.co2 129  ASP129     -0.2456
    105  OD2      -31.1100   11.3870   55.6490 O.co2 129  ASP129     -0.2456
    106  N        -34.5660   10.7060   54.0450 N.am  130  LYS130     -0.1979
    107  CA       -35.6970   11.4920   54.5560 C.3   130  LYS130      0.1596
    108  C        -36.9820   11.1300   53.8100 C.2   130  LYS130      0.2287
    109  O        -38.0590   11.6560   54.1260 O.2   130  LYS130     -0.2864
    110  CB       -35.4320   13.0010   54.2970 C.3   130  LYS130      0.0298
    111  CG       -34.0870   13.5570   54.8170 C.3   130  LYS130      0.0038
    112  CD       -33.9080   15.0780   54.5270 C.3   130  LYS130      0.0206
    113  CE       -34.7890   15.9390   55.3840 C.3   130  LYS130      0.1093
    114  NZ       -34.8010   17.4090   54.9230 N.3   130  LYS130     -0.1314
    115  N        -28.1630    8.9120   48.9920 N.3   160  SER160     -0.1202
    116  CA       -28.0130    9.7490   50.1880 C.3   160  SER160      0.2020
    117  C        -26.5440   10.1660   50.1660 C.2   160  SER160      0.2619
    118  O        -25.6800    9.3660   50.4710 O.2   160  SER160     -0.2717
    119  CB       -28.2700    9.0470   51.5220 C.3   160  SER160      0.2103
    120  OG       -27.9070    9.9420   52.5790 O.3   160  SER160     -0.2182
    121  N        -26.2710   11.4180   49.7790 N.am  161  ALA161     -0.1965
    122  CA       -24.9210   11.9340   49.7500 C.3   161  ALA161      0.1728
    123  C        -24.3850   11.9940   51.1870 C.2   161  ALA161      0.2616
    124  O        -23.1450   11.9110   51.4040 O.2   161  ALA161     -0.2715
    125  CB       -24.8960   13.3620   49.1390 C.3   161  ALA161      0.0334
    126  N        -25.3010   12.1430   52.1380 N.am  162  LYS162     -0.1977
    127  CA       -24.9110   12.2320   53.5360 C.3   162  LYS162      0.1596
    128  C        -24.3420   10.9320   54.0470 C.2   162  LYS162      0.2287
    129  O        -23.2760   10.9390   54.6240 O.2   162  LYS162     -0.2864
    130  CB       -26.0830   12.6110   54.4390 C.3   162  LYS162      0.0298
    131  CG       -25.7730   12.5370   55.9540 C.3   162  LYS162      0.0038
    132  CD       -26.8200   13.2850   56.7440 C.3   162  LYS162      0.0206
    133  CE       -26.3190   13.6600   58.1800 C.3   162  LYS162      0.1093
    134  NZ       -27.2920   14.5790   58.8640 N.3   162  LYS162     -0.1314
@<TRIPOS>BOND
     1    69    67    1
     2    43    44    1
     3    43    42    1
     4    44    45    1
     5     1     2    1
     6     6     7    1
     7     6     5    1
     8    67    68    1
     9    67    66    2
    10    42    41    1
    11     7     8    1
    12     2     5    1
    13     2     3    1
    14    66    65    1
    15     8     9    2
    16    41    38    1
    17     3     4    2
    18     3    12   am
    19    65    64    1
    20    32    30    1
    21    40    39    2
    22    12    13    1
    23     9    11    1
    24     9    10    1
    25    38    39    1
    26    38    37    1
    27    81    82    1
    28    39    46   am
    29    64    63    1
    30    31    30    1
    31    30    27    1
    32    37    35   am
    33    13    16    1
    34    13    14    1
    35    46    47    1
    36    85    82    1
    37    85    86    1
    38    47    50    1
    39    47    48    1
    40    82    83    1
    41    16    17    1
    42    63    60    1
    43    36    35    2
    44    59    60    1
    45    35    34    1
    46    49    48    2
    47    14    15    2
    48    14    18   am
    49    27    26    1
    50    27    28    1
    51    50    51    1
    52    48    52   am
    53    60    61    1
    54    86    87    2
    55    86    88   am
    56    29    28    2
    57    26    20   am
    58    28    33   am
    59    84    83    2
    60    83    89   am
    61    33    34    1
    62    54    55    2
    63    54    53    1
    64    18    19    1
    65    52    53    1
    66   115   116    1
    67   125   122    1
    68    20    19    1
    69    20    21    2
    70    89    90    1
    71    53    56    1
    72    61    62    2
    73    61    70   am
    74    19    22    1
    75   122   121    1
    76   122   123    1
    77   121   117   am
    78   117   116    1
    79   117   118    2
    80   116   119    1
    81    70    71    1
    82    56    58    1
    83    56    57    1
    84    22    23    1
    85    90    91    1
    86    90    93    1
    87    94    93    1
    88    94    95    1
    89    91    92    2
    90    79    78    1
    91   123   124    2
    92   123   126   am
    93    96    95    1
    94    96    97    1
    95   119   120    1
    96    71    74    1
    97    71    72    1
    98    80    78    1
    99    78    77    2
   100   126   127    1
   101    23    24    2
   102    23    25   am
   103    75    74    1
   104    75    76    1
   105    72    73    2
   106    98    99    1
   107    77    76    1
   108   127   128    1
   109   127   130    1
   110   104   103   ar
   111   108   109    2
   112   108   107    1
   113   106   107    1
   114   106   100   am
   115   128   129    2
   116    99   100    1
   117    99   102    1
   118   110   107    1
   119   110   111    1
   120   130   131    1
   121   112   111    1
   122   112   113    1
   123   103   102    1
   124   103   105   ar
   125   100   101    2
   126   114   113    1
   127   131   132    1
   128   132   133    1
   129   133   134    1
