@<TRIPOS>MOLECULE
tmp/2cy2A00.pdb
 228 229 0 0 0
SMALL
GASTEIGER

@<TRIPOS>ATOM
      1  N        -13.8310   39.6420   62.1770 N.3    21  THR21      -0.1218
      2  CA       -12.8430   40.5440   62.7840 C.3    21  THR21       0.1862
      3  C        -13.4570   41.9170   63.0490 C.2    21  THR21       0.2287
      4  O        -13.1280   42.5660   64.0510 O.2    21  THR21      -0.2866
      5  CB       -11.5760   40.6570   61.9240 C.3    21  THR21       0.1770
      6  OG1      -11.1410   39.3410   61.5480 O.3    21  THR21      -0.2211
      7  CG2      -10.4550   41.3060   62.7290 C.3    21  THR21       0.0375
      8  N        -13.2790   43.4150   66.6240 N.3    25  THR25      -0.1203
      9  CA       -12.5200   44.6450   66.8340 C.3    25  THR25       0.1994
     10  C        -13.3200   45.8770   67.1860 C.2    25  THR25       0.2617
     11  O        -12.8670   46.6780   67.9980 O.2    25  THR25      -0.2717
     12  CB       -11.6600   45.0140   65.5830 C.3    25  THR25       0.1784
     13  OG1      -10.9060   43.8720   65.1650 O.3    25  THR25      -0.2211
     14  CG2      -10.7050   46.1790   65.8910 C.3    25  THR25       0.0376
     15  N        -14.4970   46.0400   66.5890 N.am   26  TYR26      -0.1975
     16  CA       -15.2470   47.2610   66.8240 C.3    26  TYR26       0.1639
     17  C        -16.3410   47.2450   67.8770 C.2    26  TYR26       0.2290
     18  O        -17.1550   48.1620   67.9440 O.2    26  TYR26      -0.2864
     19  CB       -15.7850   47.7950   65.4880 C.3    26  TYR26       0.0560
     20  CG       -14.6910   47.9880   64.4540 C.ar   26  TYR26      -0.0198
     21  CD1      -13.5080   48.6590   64.7800 C.ar   26  TYR26      -0.0009
     22  CD2      -14.8170   47.4550   63.1680 C.ar   26  TYR26      -0.0009
     23  CE1      -12.4600   48.7910   63.8470 C.ar   26  TYR26       0.0417
     24  CE2      -13.7880   47.5750   62.2240 C.ar   26  TYR26       0.0417
     25  CZ       -12.6030   48.2430   62.5690 C.ar   26  TYR26       0.1957
     26  OH       -11.5630   48.3260   61.6490 O.3    26  TYR26      -0.2866
     27  N         -4.5650   51.5600   51.4100 N.3    91  LEU91      -0.1231
     28  CA        -4.7440   50.1910   51.9000 C.3    91  LEU91       0.1693
     29  C         -6.2500   50.2100   52.2290 C.2    91  LEU91       0.2592
     30  O         -6.6840   50.8130   53.2200 O.2    91  LEU91      -0.2718
     31  CB        -3.9090   49.9680   53.1790 C.3    91  LEU91       0.0284
     32  CG        -3.4580   48.5320   53.4990 C.3    91  LEU91       0.0019
     33  CD1       -2.7940   48.4780   54.8820 C.3    91  LEU91       0.0001
     34  CD2       -4.6450   47.5910   53.4540 C.3    91  LEU91       0.0001
     35  N         -7.0590   49.6020   51.3750 N.am   92  TRP92      -0.1962
     36  CA        -8.5100   49.6280   51.5980 C.3    92  TRP92       0.1771
     37  C         -8.9660   48.8530   52.8180 C.2    92  TRP92       0.2619
     38  O         -9.8630   49.2930   53.5560 O.2    92  TRP92      -0.2715
     39  CB        -9.2370   49.1010   50.3530 C.3    92  TRP92       0.0590
     40  CG        -9.0700   49.9950   49.1680 C.ar   92  TRP92       0.0006
     41  CD1       -8.5760   51.2670   49.1620 C.ar   92  TRP92       0.0946
     42  CD2       -9.4180   49.6990   47.8170 C.ar   92  TRP92       0.0152
     43  NE1       -8.5860   51.7840   47.8880 N.ar   92  TRP92      -0.2442
     44  CE2       -9.0990   50.8420   47.0410 C.ar   92  TRP92       0.0810
     45  CE3       -9.9650   48.5790   47.1780 C.ar   92  TRP92       0.0012
     46  CZ2       -9.3100   50.8930   45.6610 C.ar   92  TRP92       0.0191
     47  CZ3      -10.1730   48.6310   45.7960 C.ar   92  TRP92       0.0001
     48  CH2       -9.8440   49.7810   45.0570 C.ar   92  TRP92       0.0015
     49  N         -8.3220   47.7120   53.0590 N.am   93  ALA93      -0.1963
     50  CA        -8.7070   46.8690   54.1860 C.3    93  ALA93       0.1728
     51  C         -7.6410   45.8540   54.5200 C.2    93  ALA93       0.2616
     52  O         -6.9480   45.3730   53.6440 O.2    93  ALA93      -0.2715
     53  CB       -10.0040   46.1180   53.8510 C.3    93  ALA93       0.0334
     54  N         -7.5160   45.5560   55.8040 N.am   94  ILE94      -0.1963
     55  CA        -6.6120   44.5240   56.2380 C.3    94  ILE94       0.1727
     56  C         -7.1710   44.0180   57.5630 C.2    94  ILE94       0.2616
     57  O         -7.4350   44.7850   58.5070 O.2    94  ILE94      -0.2715
     58  CB        -5.1300   45.0150   56.3520 C.3    94  ILE94       0.0290
     59  CG1       -4.2410   43.8330   56.7580 C.3    94  ILE94       0.0022
     60  CG2       -5.0270   46.1750   57.3250 C.3    94  ILE94       0.0023
     61  CD1       -2.7420   44.1260   56.7670 C.3    94  ILE94       0.0001
     62  N         -7.3950   42.7020   57.5960 N.am   95  TYR95      -0.1960
     63  CA        -7.9390   42.0200   58.7640 C.3    95  TYR95       0.1771
     64  C         -7.3510   40.6260   58.9070 C.2    95  TYR95       0.2619
     65  O         -7.1910   39.8890   57.9100 O.2    95  TYR95      -0.2715
     66  CB        -9.4720   41.9020   58.6530 C.3    95  TYR95       0.0574
     67  CG       -10.1880   43.2520   58.7280 C.ar   95  TYR95      -0.0198
     68  CD1      -10.4250   44.0170   57.5810 C.ar   95  TYR95      -0.0009
     69  CD2      -10.5160   43.8020   59.9680 C.ar   95  TYR95      -0.0009
     70  CE1      -10.9710   45.3350   57.6830 C.ar   95  TYR95       0.0417
     71  CE2      -11.0490   45.0920   60.0840 C.ar   95  TYR95       0.0417
     72  CZ       -11.2710   45.8570   58.9540 C.ar   95  TYR95       0.1957
     73  OH       -11.7440   47.1470   59.1320 O.3    95  TYR95      -0.2866
     74  N         -7.0190   40.2750   60.1480 N.am   96  VAL96      -0.1977
     75  CA        -6.4950   38.9360   60.4740 C.3    96  VAL96       0.1596
     76  C         -7.3830   38.4440   61.6460 C.2    96  VAL96       0.2287
     77  O         -7.6210   39.1850   62.6090 O.2    96  VAL96      -0.2864
     78  CB        -5.0150   38.9900   60.9510 C.3    96  VAL96       0.0276
     79  CG1       -4.5460   37.5720   61.3980 C.3    96  VAL96       0.0022
     80  CG2       -4.1220   39.5690   59.8210 C.3    96  VAL96       0.0022
     81  N         -3.7510   36.7980   65.0640 N.3   101  GLN101     -0.1231
     82  CA        -3.0720   38.1010   65.1440 C.3   101  GLN101      0.1698
     83  C         -1.7440   37.9860   65.9020 C.2   101  GLN101      0.2592
     84  O         -1.5190   37.0110   66.6360 O.2   101  GLN101     -0.2718
     85  CB        -3.9720   39.1370   65.8430 C.3   101  GLN101      0.0381
     86  CG        -5.0960   39.6680   64.9340 C.3   101  GLN101      0.0905
     87  CD        -6.1540   40.4680   65.6860 C.2   101  GLN101      0.2608
     88  OE1       -5.9410   40.9000   66.8220 O.2   101  GLN101     -0.2717
     89  NE2       -7.3030   40.6650   65.0550 N.am  101  GLN101     -0.0878
     90  N         -0.8780   38.9920   65.7170 N.am  102  ARG102     -0.1980
     91  CA         0.4390   39.0760   66.3640 C.3   102  ARG102      0.1597
     92  C          1.3200   37.8560   66.1150 C.2   102  ARG102      0.2287
     93  O          2.0590   37.4190   66.9900 O.2   102  ARG102     -0.2864
     94  CB         0.3120   39.3440   67.8840 C.3   102  ARG102      0.0334
     95  CG        -0.5210   40.5890   68.2540 C.3   102  ARG102      0.0492
     96  CD        -0.0800   41.8850   67.5020 C.3   102  ARG102      0.2205
     97  NE         1.1650   42.4730   68.0340 N.pl3 102  ARG102     -0.0865
     98  CZ         1.2320   43.3030   69.0790 C.cat 102  ARG102      0.5346
     99  NH1        0.1300   43.6710   69.7250 N.pl3 102  ARG102      0.1354
    100  NH2        2.4090   43.7620   69.4920 N.pl3 102  ARG102      0.1354
    101  N          2.7250   37.8760   62.8280 N.3   104  GLY104     -0.1210
    102  CA         3.3520   38.3520   61.6080 C.3   104  GLY104      0.1956
    103  C          2.5150   38.2920   60.3360 C.2   104  GLY104      0.2612
    104  O          3.0180   38.6720   59.2690 O.2   104  GLY104     -0.2717
    105  N          1.2580   37.8340   60.4060 N.am  105  LEU105     -0.1965
    106  CA         0.4640   37.7650   59.1740 C.3   105  LEU105      0.1728
    107  C          0.1210   39.1340   58.5750 C.2   105  LEU105      0.2617
    108  O          0.2260   39.3120   57.3590 O.2   105  LEU105     -0.2715
    109  CB        -0.8190   36.9580   59.3880 C.3   105  LEU105      0.0311
    110  CG        -0.6630   35.4320   59.3450 C.3   105  LEU105      0.0022
    111  CD1        0.4290   35.0050   60.2940 C.3   105  LEU105      0.0001
    112  CD2       -1.9770   34.7620   59.7010 C.3   105  LEU105      0.0001
    113  N         -0.2730   40.0850   59.4220 N.am  106  GLY106     -0.1940
    114  CA        -0.6280   41.4230   58.9470 C.3   106  GLY106      0.2014
    115  C          0.5660   42.0870   58.2800 C.2   106  GLY106      0.2638
    116  O          0.4500   42.7150   57.2190 O.2   106  GLY106     -0.2714
    117  N          1.7320   41.9510   58.9030 N.am  107  ARG107     -0.1977
    118  CA         2.9410   42.5350   58.3380 C.3   107  ARG107      0.1597
    119  C          3.2200   41.9370   56.9610 C.2   107  ARG107      0.2287
    120  O          3.5430   42.6570   56.0090 O.2   107  ARG107     -0.2864
    121  CB         4.1530   42.2930   59.2560 C.3   107  ARG107      0.0334
    122  CG         5.4000   43.0880   58.8310 C.3   107  ARG107      0.0492
    123  CD         6.6800   42.3310   59.1970 C.3   107  ARG107      0.2205
    124  NE         7.8960   42.9710   58.6980 N.pl3 107  ARG107     -0.0865
    125  CZ         8.4300   44.0820   59.2060 C.cat 107  ARG107      0.5346
    126  NH1        7.8500   44.6940   60.2450 N.pl3 107  ARG107      0.1354
    127  NH2        9.5610   44.5690   58.6870 N.pl3 107  ARG107      0.1354
    128  N         -3.6220   55.0360   54.7210 N.3   126  VAL126     -0.1231
    129  CA        -4.6060   54.1020   55.2650 C.3   126  VAL126      0.1692
    130  C         -5.4690   54.8310   56.2850 C.2   126  VAL126      0.2592
    131  O         -4.9690   55.6300   57.0880 O.2   126  VAL126     -0.2718
    132  CB        -3.9390   52.8700   55.9420 C.3   126  VAL126      0.0266
    133  CG1       -3.1000   53.3140   57.1390 C.3   126  VAL126      0.0020
    134  CG2       -5.0390   51.8670   56.4120 C.3   126  VAL126      0.0020
    135  N         -6.7760   54.5800   56.2370 N.am  127  TRP127     -0.1962
    136  CA        -7.7190   55.1950   57.1880 C.3   127  TRP127      0.1771
    137  C         -8.0680   54.1600   58.2500 C.2   127  TRP127      0.2619
    138  O         -8.3190   52.9830   57.9440 O.2   127  TRP127     -0.2715
    139  CB        -9.0030   55.6740   56.4870 C.3   127  TRP127      0.0590
    140  CG        -8.7950   56.9120   55.6650 C.ar  127  TRP127      0.0006
    141  CD1       -8.5960   56.9860   54.3170 C.ar  127  TRP127      0.0946
    142  CD2       -8.7740   58.2540   56.1550 C.ar  127  TRP127      0.0152
    143  NE1       -8.4670   58.3040   53.9310 N.ar  127  TRP127     -0.2442
    144  CE2       -8.5720   59.1050   55.0360 C.ar  127  TRP127      0.0810
    145  CE3       -8.9080   58.8220   57.4350 C.ar  127  TRP127      0.0012
    146  CZ2       -8.5050   60.5060   55.1510 C.ar  127  TRP127      0.0191
    147  CZ3       -8.8410   60.2310   57.5650 C.ar  127  TRP127      0.0001
    148  CH2       -8.6400   61.0530   56.4200 C.ar  127  TRP127      0.0015
    149  N         -8.0620   54.5930   59.5050 N.am  128  VAL128     -0.1977
    150  CA        -8.3360   53.6770   60.6030 C.3   128  VAL128      0.1596
    151  C         -9.1190   54.4500   61.6490 C.2   128  VAL128      0.2287
    152  O         -8.9130   55.6760   61.8040 O.2   128  VAL128     -0.2864
    153  CB        -6.9900   53.1320   61.1750 C.3   128  VAL128      0.0276
    154  CG1       -6.0670   54.2940   61.4730 C.3   128  VAL128      0.0022
    155  CG2       -7.2180   52.2810   62.4430 C.3   128  VAL128      0.0022
    156  N         -9.4940   52.7520   67.3490 N.3   132  ASN132     -0.1226
    157  CA        -9.0620   51.3730   67.1130 C.3   132  ASN132      0.1770
    158  C         -7.5340   51.2790   67.3630 C.2   132  ASN132      0.2439
    159  O         -6.7170   51.4090   66.4230 O.2   132  ASN132     -0.2733
    160  CB        -9.4140   50.9400   65.6650 C.3   132  ASN132      0.1168
    161  CG        -8.7540   49.6220   65.2770 C.2   132  ASN132      0.2627
    162  OD1       -8.2950   48.8730   66.1440 O.2   132  ASN132     -0.2716
    163  ND2       -8.7000   49.3350   63.9800 N.am  132  ASN132     -0.0877
    164  N         -7.1270   51.0660   68.6380 N.am  133  PRO133     -0.2718
    165  CA        -5.7260   50.9490   69.1080 C.3   133  PRO133      0.1535
    166  C         -4.9430   49.8490   68.4320 C.2   133  PRO133      0.2598
    167  O         -3.7350   49.9860   68.2390 O.2   133  PRO133     -0.2715
    168  CB        -5.8570   50.6450   70.6040 C.3   133  PRO133      0.0310
    169  CG        -7.2300   51.1040   70.9610 C.3   133  PRO133      0.0237
    170  CD        -8.0780   50.8650   69.7480 C.3   133  PRO133      0.0939
    171  N         -5.6270   48.7470   68.1070 N.am  134  LYS134     -0.1964
    172  CA        -5.0040   47.6010   67.4440 C.3   134  LYS134      0.1728
    173  C         -4.4420   48.0000   66.0850 C.2   134  LYS134      0.2616
    174  O         -3.2430   47.8060   65.7960 O.2   134  LYS134     -0.2715
    175  CB        -6.0160   46.4560   67.1870 C.3   134  LYS134      0.0311
    176  CG        -6.3480   45.5640   68.3620 C.3   134  LYS134      0.0038
    177  CD        -6.7280   44.1340   67.9100 C.3   134  LYS134      0.0206
    178  CE        -6.8530   43.2440   69.1390 C.3   134  LYS134      0.1093
    179  NZ        -7.3150   41.8590   68.8400 N.3   134  LYS134     -0.1314
    180  N         -5.3230   48.5250   65.2380 N.am  135  GLY135     -0.1955
    181  CA        -4.8910   48.9260   63.9170 C.3   135  GLY135      0.1869
    182  C         -3.8980   50.0860   64.0000 C.2   135  GLY135      0.2309
    183  O         -2.8960   50.1220   63.2820 O.2   135  GLY135     -0.2863
    184  N         -1.8430   50.9670   66.4750 N.3   137  GLY137     -0.1210
    185  CA        -0.5580   50.5180   66.9960 C.3   137  GLY137      0.1956
    186  C          0.2320   49.8030   65.9380 C.2   137  GLY137      0.2612
    187  O          1.4540   49.9600   65.8480 O.2   137  GLY137     -0.2717
    188  N         -0.4730   49.0210   65.1180 N.am  138  PHE138     -0.1962
    189  CA         0.1480   48.2660   64.0180 C.3   138  PHE138      0.1771
    190  C          0.7720   49.2440   62.9890 C.2   138  PHE138      0.2619
    191  O          1.9340   49.0880   62.5800 O.2   138  PHE138     -0.2715
    192  CB        -0.9430   47.3930   63.3210 C.3   138  PHE138      0.0574
    193  CG        -0.5010   46.7390   62.0280 C.ar  138  PHE138     -0.0200
    194  CD1        0.4660   45.7210   62.0260 C.ar  138  PHE138     -0.0042
    195  CD2       -1.0950   47.0980   60.8140 C.ar  138  PHE138     -0.0042
    196  CE1        0.8240   45.0660   60.8380 C.ar  138  PHE138     -0.0003
    197  CE2       -0.7450   46.4510   59.6210 C.ar  138  PHE138     -0.0003
    198  CZ         0.2230   45.4250   59.6350 C.ar  138  PHE138     -0.0000
    199  N          0.0010   50.2390   62.5570 N.am  139  TYR139     -0.1974
    200  CA         0.5120   51.1790   61.5580 C.3   139  TYR139      0.1639
    201  C          1.6430   52.0220   62.1120 C.2   139  TYR139      0.2290
    202  O          2.6540   52.1890   61.4310 O.2   139  TYR139     -0.2864
    203  CB        -0.6000   52.0870   61.0270 C.3   139  TYR139      0.0560
    204  CG        -1.6190   51.2810   60.2320 C.ar  139  TYR139     -0.0198
    205  CD1       -1.2220   50.4640   59.1630 C.ar  139  TYR139     -0.0009
    206  CD2       -2.9640   51.3050   60.5880 C.ar  139  TYR139     -0.0009
    207  CE1       -2.1640   49.6720   58.4560 C.ar  139  TYR139      0.0417
    208  CE2       -3.9100   50.5330   59.9080 C.ar  139  TYR139      0.0417
    209  CZ        -3.5120   49.7310   58.8560 C.ar  139  TYR139      0.1957
    210  OH        -4.4900   49.0350   58.1940 O.3   139  TYR139     -0.2866
    211  N          3.7270   51.3000   64.4620 N.3   141  HIS141     -0.1226
    212  CA         4.8970   50.4420   64.5620 C.3   141  HIS141      0.1752
    213  C          5.5700   50.2670   63.2200 C.2   141  HIS141      0.2595
    214  O          6.7880   50.1910   63.1350 O.2   141  HIS141     -0.2718
    215  CB         4.5250   49.0520   65.1010 C.3   141  HIS141      0.0759
    216  CG         5.7140   48.1750   65.3800 C.ar  141  HIS141      0.0818
    217  ND1        6.5930   48.4160   66.4180 N.ar  141  HIS141     -0.2268
    218  CD2        6.1820   47.0700   64.7440 C.ar  141  HIS141      0.1154
    219  CE1        7.5470   47.4980   66.4100 C.ar  141  HIS141      0.1986
    220  NE2        7.3200   46.6700   65.4050 N.ar  141  HIS141     -0.2212
    221  N          4.7800   50.1970   62.1620 N.am  142  LEU142     -0.1980
    222  CA         5.3290   49.9800   60.8350 C.3   142  LEU142      0.1596
    223  C          5.9240   51.2330   60.1760 C.2   142  LEU142      0.2287
    224  O          6.4650   51.1490   59.0790 O.2   142  LEU142     -0.2864
    225  CB         4.2570   49.3430   59.9280 C.3   142  LEU142      0.0297
    226  CG         4.3890   47.8460   59.5790 C.3   142  LEU142      0.0022
    227  CD1        4.7280   47.0320   60.8210 C.3   142  LEU142      0.0001
    228  CD2        3.1070   47.3330   58.9170 C.3   142  LEU142      0.0001
@<TRIPOS>BOND
     1    48    46   ar
     2    48    47   ar
     3    46    44   ar
     4    47    45   ar
     5    44    42   ar
     6    44    43   ar
     7    45    42   ar
     8    42    40   ar
     9    43    41   ar
    10    41    40   ar
    11    40    39    1
    12    39    36    1
    13    35    36    1
    14    35    29   am
    15    27    28    1
    16    36    37    1
    17    28    29    1
    18    28    31    1
    19    29    30    2
    20    37    49   am
    21    37    38    2
    22    49    50    1
    23    31    32    1
    24    34    32    1
    25    32    33    1
    26    52    51    2
    27    53    50    1
    28   143   141   ar
    29   143   144   ar
    30    50    51    1
    31   141   140   ar
    32    51    54   am
    33   128   129    1
    34   144   146   ar
    35   144   142   ar
    36   146   148   ar
    37   129   132    1
    38   129   130    1
    39   140   142   ar
    40   140   139    1
    41    54    55    1
    42   132   134    1
    43   132   133    1
    44   120   119    2
    45   142   145   ar
    46   135   130   am
    47   135   136    1
    48    55    58    1
    49    55    56    1
    50   130   131    2
    51    58    59    1
    52    58    60    1
    53   148   147   ar
    54   139   136    1
    55    59    61    1
    56   119   118    1
    57   136   137    1
    58   116   115    2
    59   108   107    2
    60   145   147   ar
    61    56    62   am
    62    56    57    2
    63    68    70   ar
    64    68    67   ar
    65    62    63    1
    66    70    72   ar
    67    65    64    2
    68   138   137    2
    69   210   209    1
    70   137   149   am
    71   115   117   am
    72   115   114    1
    73   118   117    1
    74   118   121    1
    75   207   209   ar
    76   207   205   ar
    77   107   106    1
    78   107   113   am
    79    66    67    1
    80    66    63    1
    81   127   125    1
    82   124   123    1
    83   124   125    2
    84    67    69   ar
    85    63    64    1
    86   122   123    1
    87   122   121    1
    88   209   208   ar
    89    64    74   am
    90   228   226    1
    91   114   113    1
    92    72    73    1
    93    72    71   ar
    94   224   223    2
    95   205   204   ar
    96   106   109    1
    97   106   105    1
    98   125   126    1
    99   104   103    2
   100   110   109    1
   101   110   112    1
   102   110   111    1
   103   149   150    1
   104   226   225    1
   105   226   227    1
   106   197   198   ar
   107   197   195   ar
   108   198   196   ar
   109    80    78    1
   110   208   206   ar
   111   225   222    1
   112    69    71   ar
   113    74    75    1
   114   223   222    1
   115   204   206   ar
   116   204   203    1
   117   103   105   am
   118   103   102    1
   119    75    78    1
   120    75    76    1
   121   150   153    1
   122   150   151    1
   123   195   193   ar
   124   222   221    1
   125   196   194   ar
   126    78    79    1
   127   203   200    1
   128   153   154    1
   129   153   155    1
   130   202   201    2
   131     6     5    1
   132   200   201    1
   133   200   199    1
   134   102   101    1
   135    76    77    2
   136    26    25    1
   137   151   152    2
   138     5     7    1
   139     5     2    1
   140   194   193   ar
   141   193   192    1
   142   221   213   am
   143     1     2    1
   144    24    25   ar
   145    24    22   ar
   146   199   190   am
   147    25    23   ar
   148   191   190    2
   149     2     3    1
   150   190   189    1
   151     3     4    2
   152   214   213    2
   153    22    20   ar
   154   213   212    1
   155   183   182    2
   156   192   189    1
   157    23    21   ar
   158   181   182    1
   159   181   180    1
   160   163   161   am
   161   189   188    1
   162    20    21   ar
   163    20    19    1
   164   211   212    1
   165   212   215    1
   166   218   216   ar
   167   218   220   ar
   168    86    87    1
   169    86    85    1
   170    89    87   am
   171    81    82    1
   172   215   216    1
   173   188   186   am
   174    82    85    1
   175    82    83    1
   176    13    12    1
   177   180   173   am
   178   161   160    1
   179   161   162    2
   180   216   217   ar
   181   220   219   ar
   182    19    16    1
   183    12    14    1
   184    12     9    1
   185   160   157    1
   186    87    88    2
   187    90    83   am
   188    90    91    1
   189   174   173    2
   190   187   186    2
   191    83    84    2
   192   186   185    1
   193   173   172    1
   194    92    91    1
   195    92    93    2
   196    91    94    1
   197   219   217   ar
   198   159   158    2
   199   184   185    1
   200    15    16    1
   201    15    10   am
   202     8     9    1
   203    16    17    1
   204     9    10    1
   205   157   156    1
   206   157   158    1
   207    10    11    2
   208   175   172    1
   209   175   176    1
   210   158   164   am
   211   172   171    1
   212    96    97    1
   213    96    95    1
   214    17    18    2
   215    94    95    1
   216   177   176    1
   217   177   178    1
   218    97    98    2
   219   171   166   am
   220   167   166    2
   221   166   165    1
   222   164   165    1
   223   164   170    1
   224   179   178    1
   225    98   100    1
   226    98    99    1
   227   165   168    1
   228   170   169    1
   229   168   169    1
