@<TRIPOS>MOLECULE
tmp/2cy6A00.pdb
 91 87 0 0 0
SMALL
GASTEIGER

@<TRIPOS>ATOM
      1  N         19.2290   22.4450   40.5420 N.3    12  TYR12      -0.1241
      2  CA        18.4880   23.1260   41.5600 C.3    12  TYR12       0.1605
      3  C         18.4210   22.3360   42.8590 C.2    12  TYR12       0.2264
      4  O         17.7830   21.3390   42.9140 O.2    12  TYR12      -0.2867
      5  CB        17.0600   23.4690   41.1180 C.3    12  TYR12       0.0534
      6  CG        16.4940   24.4600   42.1090 C.ar   12  TYR12      -0.0201
      7  CD1       16.8450   25.8000   42.0460 C.ar   12  TYR12      -0.0009
      8  CD2       15.7690   24.0400   43.2100 C.ar   12  TYR12      -0.0009
      9  CE1       16.4210   26.7120   43.0050 C.ar   12  TYR12       0.0417
     10  CE2       15.3290   24.9360   44.1720 C.ar   12  TYR12       0.0417
     11  CZ        15.6640   26.2850   44.0760 C.ar   12  TYR12       0.1957
     12  OH        15.2070   27.2010   45.0350 O.3    12  TYR12      -0.2866
     13  N         16.8910   21.1470   45.8620 N.3    14  ASN14      -0.1240
     14  CA        15.6300   21.0600   46.5670 C.3    14  ASN14       0.1653
     15  C         15.9310   20.3660   47.8880 C.2    14  ASN14       0.2266
     16  O         15.7460   19.1490   48.0270 O.2    14  ASN14      -0.2867
     17  CB        14.6180   20.2650   45.7670 C.3    14  ASN14       0.1155
     18  CG        14.3760   20.8620   44.3860 C.2    14  ASN14       0.2627
     19  OD1       15.0110   20.4940   43.4000 O.2    14  ASN14      -0.2716
     20  ND2       13.4730   21.8110   44.3210 N.am   14  ASN14      -0.0877
     21  N         10.8380   24.1290   36.4640 N.3    98  GLY98      -0.1210
     22  CA         9.6940   24.3440   37.3330 C.3    98  GLY98       0.1956
     23  C          9.4400   25.8350   37.3950 C.2    98  GLY98       0.2612
     24  O          9.1200   26.4440   36.3800 O.2    98  GLY98      -0.2717
     25  N          9.5930   26.3910   38.5910 N.am   99  LEU99      -0.1965
     26  CA         9.4720   27.8230   38.8510 C.3    99  LEU99       0.1728
     27  C         10.6910   28.5390   38.3490 C.2    99  LEU99       0.2616
     28  O         10.6330   29.7320   38.0280 O.2    99  LEU99      -0.2715
     29  CB         9.3980   28.1190   40.3410 C.3    99  LEU99       0.0311
     30  CG         8.0560   28.0510   41.0600 C.3    99  LEU99       0.0022
     31  CD1        7.2030   26.9780   40.5290 C.3    99  LEU99       0.0001
     32  CD2        8.2700   27.8250   42.5550 C.3    99  LEU99       0.0001
     33  N         11.8260   27.8390   38.3610 N.am  100  TYR100     -0.1974
     34  CA        13.0030   28.3250   37.7320 C.3   100  TYR100      0.1639
     35  C         13.2690   27.4640   36.4920 C.2   100  TYR100      0.2290
     36  O         12.7340   26.3240   36.2890 O.2   100  TYR100     -0.2864
     37  CB        14.1750   28.2670   38.6810 C.3   100  TYR100      0.0560
     38  CG        14.0770   29.1170   39.9140 C.ar  100  TYR100     -0.0198
     39  CD1       13.8410   30.4890   39.8310 C.ar  100  TYR100     -0.0009
     40  CD2       14.2850   28.5570   41.1760 C.ar  100  TYR100     -0.0009
     41  CE1       13.7890   31.2610   40.9370 C.ar  100  TYR100      0.0417
     42  CE2       14.2550   29.3430   42.3050 C.ar  100  TYR100      0.0417
     43  CZ        13.9950   30.7000   42.1690 C.ar  100  TYR100      0.1957
     44  OH        13.9680   31.4840   43.3030 O.3   100  TYR100     -0.2866
     45  N         17.1060   25.8660   36.9940 N.3   207  ALA207     -0.1231
     46  CA        16.4710   24.6290   37.4230 C.3   207  ALA207      0.1694
     47  C         15.8500   23.9990   36.1990 C.2   207  ALA207      0.2592
     48  O         15.5890   24.7600   35.1800 O.2   207  ALA207     -0.2718
     49  CB        15.3950   24.9400   38.4300 C.3   207  ALA207      0.0304
     50  N         15.5900   22.6750   36.1980 N.am  208  ASP208     -0.1974
     51  CA        15.9220   21.7460   37.3150 C.3   208  ASP208      0.1709
     52  C         17.0640   20.7410   37.0860 C.2   208  ASP208      0.2293
     53  O         17.6950   20.2220   38.0180 O.2   208  ASP208     -0.2864
     54  CB        14.6470   21.0480   37.6570 C.3   208  ASP208      0.1436
     55  CG        13.8480   21.8330   38.6350 C.2   208  ASP208      0.3671
     56  OD1       13.0000   22.5970   38.2010 O.co2 208  ASP208     -0.2456
     57  OD2       14.1500   21.7750   39.8310 O.co2 208  ASP208     -0.2456
     58  N          2.8310   15.3220   36.3320 N.3   224  GLY224     -0.1225
     59  CA         3.3370   16.2880   37.3240 C.3   224  GLY224      0.1811
     60  C          4.7950   16.1150   37.7000 C.2   224  GLY224      0.2280
     61  O          5.2020   16.4420   38.8100 O.2   224  GLY224     -0.2866
     62  N          7.3990   17.7380   36.5270 N.3   226  THR226     -0.1203
     63  CA         8.1790   18.9060   36.1630 C.3   226  THR226      0.1994
     64  C          8.9400   19.2240   37.3820 C.2   226  THR226      0.2618
     65  O          8.8440   18.5200   38.3780 O.2   226  THR226     -0.2717
     66  CB         7.3000   20.1480   35.7990 C.3   226  THR226      0.1784
     67  OG1        6.4850   20.4840   36.9450 O.3   226  THR226     -0.2211
     68  CG2        6.3930   19.8370   34.6480 C.3   226  THR226      0.0376
     69  N          9.7000   20.3000   37.3290 N.am  227  GLY227     -0.1942
     70  CA        10.4820   20.7100   38.4720 C.3   227  GLY227      0.2014
     71  C         11.4820   19.7040   38.9920 C.2   227  GLY227      0.2639
     72  O         12.2440   18.9920   38.2360 O.2   227  GLY227     -0.2714
     73  N         11.4830   19.5950   40.3080 N.am  228  ARG228     -0.1963
     74  CA        12.5170   18.8270   40.9710 C.3   228  ARG228      0.1729
     75  C         12.4730   17.2960   40.6910 C.2   228  ARG228      0.2616
     76  O         13.4090   16.5860   41.0940 O.2   228  ARG228     -0.2715
     77  CB        12.4020   19.0550   42.4510 C.3   228  ARG228      0.0348
     78  CG        11.2240   18.4020   43.0540 C.3   228  ARG228      0.0492
     79  CD        10.8490   19.0380   44.3870 C.3   228  ARG228      0.2205
     80  NE         9.6880   18.4450   45.0450 N.pl3 228  ARG228     -0.0865
     81  CZ         9.2630   18.7900   46.2550 C.cat 228  ARG228      0.5346
     82  NH1        9.9160   19.7080   46.9860 N.pl3 228  ARG228      0.1354
     83  NH2        8.2090   18.1970   46.7450 N.pl3 228  ARG228      0.1354
     84  N         11.4120   16.8300   40.0650 N.am  229  LEU229     -0.1977
     85  CA        11.2300   15.4040   39.7540 C.3   229  LEU229      0.1596
     86  C         11.7940   14.9690   38.3930 C.2   229  LEU229      0.2287
     87  O         11.7760   13.7970   38.0680 O.2   229  LEU229     -0.2864
     88  CB         9.7780   15.0490   39.8190 C.3   229  LEU229      0.0297
     89  CG         9.1370   15.3630   41.1820 C.3   229  LEU229      0.0022
     90  CD1        7.7080   14.9890   41.0370 C.3   229  LEU229      0.0001
     91  CD2        9.7750   14.5560   42.3500 C.3   229  LEU229      0.0001
@<TRIPOS>BOND
     1    68    66    1
     2    48    47    2
     3    66    63    1
     4    66    67    1
     5    63    62    1
     6    63    64    1
     7    50    47   am
     8    50    51    1
     9    47    46    1
    10    36    35    2
    11    58    59    1
    12    24    23    2
    13    21    22    1
    14    35    34    1
    15    45    46    1
    16    52    51    1
    17    52    53    2
    18    51    54    1
    19    59    60    1
    20    69    64   am
    21    69    70    1
    22    22    23    1
    23    64    65    2
    24    23    25   am
    25    46    49    1
    26    54    55    1
    27    60    61    2
    28    34    33    1
    29    34    37    1
    30    28    27    2
    31    87    86    2
    32    56    55   ar
    33    72    71    2
    34    27    33   am
    35    27    26    1
    36    86    85    1
    37    70    71    1
    38    25    26    1
    39    55    57   ar
    40    37    38    1
    41    26    29    1
    42    71    73   am
    43    85    88    1
    44    85    84    1
    45    88    89    1
    46    39    38   ar
    47    39    41   ar
    48    38    40   ar
    49    84    75   am
    50    73    74    1
    51    29    30    1
    52    31    30    1
    53     1     2    1
    54    75    74    1
    55    75    76    2
    56    41    43   ar
    57    74    77    1
    58    90    89    1
    59    30    32    1
    60     5     2    1
    61     5     6    1
    62    40    42   ar
    63    89    91    1
    64     2     3    1
    65     7     6   ar
    66     7     9   ar
    67     6     8   ar
    68    43    42   ar
    69    43    44    1
    70    77    78    1
    71     3     4    2
    72     9    11   ar
    73    78    79    1
    74     8    10   ar
    75    19    18    2
    76    11    10   ar
    77    11    12    1
    78    20    18   am
    79    18    17    1
    80    79    80    1
    81    80    81    2
    82    17    14    1
    83    13    14    1
    84    81    83    1
    85    81    82    1
    86    14    15    1
    87    15    16    2
