@<TRIPOS>MOLECULE
tmp/2cybA00.pdb
 115 109 0 0 0
SMALL
GASTEIGER

@<TRIPOS>ATOM
      1  N         13.0360    1.9940    6.2110 N.3    35  TYR35      -0.1241
      2  CA        13.4100    0.8940    7.0870 C.3    35  TYR35       0.1605
      3  C         12.3040   -0.1390    7.1420 C.2    35  TYR35       0.2264
      4  O         11.1970    0.0840    6.6630 O.2    35  TYR35      -0.2867
      5  CB        13.6680    1.3830    8.5340 C.3    35  TYR35       0.0534
      6  CG        12.4780    1.2720    9.4980 C.ar   35  TYR35      -0.0201
      7  CD1       12.6080    0.6060   10.7250 C.ar   35  TYR35      -0.0009
      8  CD2       11.2430    1.8530    9.1970 C.ar   35  TYR35      -0.0009
      9  CE1       11.5400    0.5260   11.6270 C.ar   35  TYR35       0.0417
     10  CE2       10.1670    1.7790   10.0880 C.ar   35  TYR35       0.0417
     11  CZ        10.3250    1.1170   11.3010 C.ar   35  TYR35       0.1957
     12  OH         9.2730    1.0690   12.1870 O.3    35  TYR35      -0.2866
     13  N         11.2740   -3.2110   10.2040 N.3    37  GLY37      -0.1210
     14  CA        11.6610   -3.7330   11.4960 C.3    37  GLY37       0.1956
     15  C         11.2920   -5.1930   11.5330 C.2    37  GLY37       0.2612
     16  O         10.2890   -5.5930   10.9430 O.2    37  GLY37      -0.2717
     17  N         12.1080   -5.9940   12.2100 N.am   38  TYR38      -0.1962
     18  CA        11.8450   -7.4240   12.3260 C.3    38  TYR38       0.1771
     19  C         12.0310   -7.9380   13.7470 C.2    38  TYR38       0.2619
     20  O         13.0410   -7.6450   14.3860 O.2    38  TYR38      -0.2715
     21  CB        12.8000   -8.2340   11.4440 C.3    38  TYR38       0.0574
     22  CG        12.7700   -7.9180    9.9680 C.ar   38  TYR38      -0.0198
     23  CD1       13.6760   -7.0070    9.4130 C.ar   38  TYR38      -0.0009
     24  CD2       11.8750   -8.5650    9.1130 C.ar   38  TYR38      -0.0009
     25  CE1       13.6970   -6.7530    8.0430 C.ar   38  TYR38       0.0417
     26  CE2       11.8880   -8.3140    7.7340 C.ar   38  TYR38       0.0417
     27  CZ        12.8060   -7.4080    7.2110 C.ar   38  TYR38       0.1957
     28  OH        12.8410   -7.1530    5.8570 O.3    38  TYR38      -0.2866
     29  N         11.0680   -8.7120   14.2400 N.am   39  GLU39      -0.1977
     30  CA        11.2290   -9.3230   15.5610 C.3    39  GLU39       0.1602
     31  C         12.2090  -10.4570   15.2510 C.2    39  GLU39       0.2287
     32  O         11.9590  -11.2570   14.3560 O.2    39  GLU39      -0.2864
     33  CB         9.9240   -9.9450   16.0580 C.3    39  GLU39       0.0415
     34  CG         8.7900   -8.9860   16.3050 C.3    39  GLU39       0.1163
     35  CD         7.5750   -9.6890   16.8880 C.2    39  GLU39       0.3649
     36  OE1        6.4630   -9.1350   16.7930 O.co2  39  GLU39      -0.2457
     37  OE2        7.7350  -10.7950   17.4470 O.co2  39  GLU39      -0.2457
     38  N         15.8880   -2.6770   11.2710 N.3    68  LEU68      -0.1245
     39  CA        15.7430   -2.7250   12.7180 C.3    68  LEU68       0.1561
     40  C         15.5210   -4.1430   13.2160 C.2    68  LEU68       0.2260
     41  O         14.5260   -4.7930   12.8720 O.2    68  LEU68      -0.2867
     42  CB        14.5720   -1.8430   13.1760 C.3    68  LEU68       0.0270
     43  CG        14.2030   -1.9620   14.6660 C.3    68  LEU68       0.0019
     44  CD1       15.3510   -1.4500   15.5320 C.3    68  LEU68       0.0001
     45  CD2       12.9390   -1.1640   14.9370 C.3    68  LEU68       0.0001
     46  N         14.3310   -5.6670   15.9180 N.3    70  ALA70      -0.1245
     47  CA        13.5160   -5.2710   17.0610 C.3    70  ALA70       0.1562
     48  C         13.4890   -6.2830   18.1920 C.2    70  ALA70       0.2260
     49  O         12.4790   -6.9490   18.4070 O.2    70  ALA70      -0.2867
     50  CB        12.0790   -4.9760   16.5790 C.3    70  ALA70       0.0290
     51  N         10.7840   -5.6150   20.8980 N.3    73  HIS73      -0.1241
     52  CA         9.4620   -5.9660   20.3770 C.3    73  HIS73       0.1621
     53  C          9.2370   -7.4760   20.4360 C.2    73  HIS73       0.2264
     54  O          8.1530   -7.9410   20.8130 O.2    73  HIS73      -0.2867
     55  CB         9.2880   -5.4740   18.9380 C.3    73  HIS73       0.0745
     56  CG         8.9440   -4.0230   18.8440 C.ar   73  HIS73       0.0817
     57  ND1        9.8910   -3.0260   18.9390 N.ar   73  HIS73      -0.2268
     58  CD2        7.7480   -3.3990   18.7160 C.ar   73  HIS73       0.1154
     59  CE1        9.2930   -1.8490   18.8710 C.ar   73  HIS73       0.1986
     60  NE2        7.9940   -2.0470   18.7360 N.ar   73  HIS73      -0.2212
     61  N         -0.9400   -8.7060   14.4390 N.3   143  VAL143     -0.1245
     62  CA         0.4750   -8.7190   14.8130 C.3   143  VAL143      0.1561
     63  C          0.7840   -9.4510   16.1170 C.2   143  VAL143      0.2260
     64  O          1.7900  -10.1590   16.2240 O.2   143  VAL143     -0.2867
     65  CB         1.0040   -7.2680   14.9280 C.3   143  VAL143      0.0252
     66  CG1        2.4850   -7.2660   15.3080 C.3   143  VAL143      0.0019
     67  CG2        0.7810   -6.5390   13.6160 C.3   143  VAL143      0.0019
     68  N          3.6670   -2.3600   22.5640 N.3   157  TYR157     -0.1241
     69  CA         4.3070   -2.7150   21.2890 C.3   157  TYR157      0.1605
     70  C          4.0340   -1.7600   20.1010 C.2   157  TYR157      0.2264
     71  O          4.9740   -1.2510   19.4850 O.2   157  TYR157     -0.2867
     72  CB         3.8940   -4.1640   20.9530 C.3   157  TYR157      0.0534
     73  CG         4.4910   -4.8070   19.7220 C.ar  157  TYR157     -0.0201
     74  CD1        5.2760   -5.9660   19.8250 C.ar  157  TYR157     -0.0009
     75  CD2        4.2100   -4.3150   18.4490 C.ar  157  TYR157     -0.0009
     76  CE1        5.7530   -6.6160   18.6830 C.ar  157  TYR157      0.0417
     77  CE2        4.6790   -4.9510   17.3110 C.ar  157  TYR157      0.0417
     78  CZ         5.4470   -6.0930   17.4290 C.ar  157  TYR157      0.1957
     79  OH         5.9260   -6.6890   16.2870 O.3   157  TYR157     -0.2866
     80  N          6.6230    0.8230   18.0440 N.3   161  GLN161     -0.1245
     81  CA         6.8870    0.6770   16.6190 C.3   161  GLN161      0.1566
     82  C          6.7370    2.0350   15.9430 C.2   161  GLN161      0.2260
     83  O          7.5720    2.4260   15.1280 O.2   161  GLN161     -0.2867
     84  CB         5.9190   -0.3190   15.9780 C.3   161  GLN161      0.0367
     85  CG         6.1890   -0.5300   14.4980 C.3   161  GLN161      0.0905
     86  CD         5.4930   -1.7610   13.9570 C.2   161  GLN161      0.2608
     87  OE1        5.2570   -2.7230   14.6900 O.2   161  GLN161     -0.2717
     88  NE2        5.1840   -1.7490   12.6650 N.am  161  GLN161     -0.0878
     89  N          9.6290    4.1440   16.6710 N.3   164  ASP164     -0.1239
     90  CA        10.8650    3.7340   16.0060 C.3   164  ASP164      0.1674
     91  C         11.0400    4.5370   14.7220 C.2   164  ASP164      0.2266
     92  O         12.1560    4.8860   14.3530 O.2   164  ASP164     -0.2867
     93  CB        10.8360    2.2440   15.6560 C.3   164  ASP164      0.1410
     94  CG        10.9440    1.3640   16.8700 C.2   164  ASP164      0.3668
     95  OD1       10.4890    0.2080   16.7870 O.co2 164  ASP164     -0.2456
     96  OD2       11.4940    1.8200   17.8990 O.co2 164  ASP164     -0.2456
     97  N          0.7650   -4.3890    8.9140 N.3   179  GLN179     -0.1245
     98  CA         1.3160   -3.3500    9.7950 C.3   179  GLN179      0.1566
     99  C          0.5400   -2.0510    9.5490 C.2   179  GLN179      0.2260
    100  O          0.8260   -1.0210   10.1630 O.2   179  GLN179     -0.2867
    101  CB         2.7930   -3.0710    9.4790 C.3   179  GLN179      0.0367
    102  CG         3.7140   -4.2870    9.4590 C.3   179  GLN179      0.0905
    103  CD         3.6900   -5.0480   10.7640 C.2   179  GLN179      0.2608
    104  OE1        3.9380   -4.4820   11.8300 O.2   179  GLN179     -0.2717
    105  NE2        3.3890   -6.3400   10.6900 N.am  179  GLN179     -0.0878
    106  N          0.8830    1.6440   11.3370 N.3   183  HIS183     -0.1241
    107  CA         1.3860    2.7730   10.5730 C.3   183  HIS183      0.1621
    108  C          0.4020    3.9360   10.5650 C.2   183  HIS183      0.2264
    109  O          0.8150    5.0940   10.5810 O.2   183  HIS183     -0.2867
    110  CB         1.7310    2.3500    9.1430 C.3   183  HIS183      0.0745
    111  CG         3.0030    1.5700    9.0430 C.ar  183  HIS183      0.0817
    112  ND1        3.4250    0.9780    7.8730 N.ar  183  HIS183     -0.2268
    113  CD2        3.9550    1.3000    9.9690 C.ar  183  HIS183      0.1154
    114  CE1        4.5840    0.3750    8.0830 C.ar  183  HIS183      0.1986
    115  NE2        4.9270    0.5560    9.3460 N.ar  183  HIS183     -0.2212
@<TRIPOS>BOND
     1    28    27    1
     2     1     2    1
     3     4     3    2
     4     2     3    1
     5     2     5    1
     6    27    26   ar
     7    27    25   ar
     8    26    24   ar
     9   112   114   ar
    10   112   111   ar
    11    25    23   ar
    12   114   115   ar
    13     5     6    1
    14    97    98    1
    15   111   110    1
    16   111   113   ar
    17    24    22   ar
    18   110   107    1
    19     8     6   ar
    20     8    10   ar
    21   115   113   ar
    22    23    22   ar
    23   102   101    1
    24   102   103    1
    25   101    98    1
    26     6     7   ar
    27    99    98    1
    28    99   100    2
    29    22    21    1
    30    10    11   ar
    31    13    14    1
    32   108   107    1
    33   108   109    2
    34   107   106    1
    35   105   103   am
    36     7     9   ar
    37   103   104    2
    38    16    15    2
    39    38    39    1
    40    11     9   ar
    41    11    12    1
    42    21    18    1
    43    14    15    1
    44    15    17   am
    45    17    18    1
    46    18    19    1
    47    88    86   am
    48    39    42    1
    49    39    40    1
    50    41    40    2
    51    42    43    1
    52    67    65    1
    53    19    29   am
    54    19    20    2
    55    86    85    1
    56    86    87    2
    57    29    30    1
    58    92    91    2
    59    32    31    2
    60    61    62    1
    61    85    84    1
    62    43    45    1
    63    43    44    1
    64    91    90    1
    65    62    65    1
    66    62    63    1
    67    65    66    1
    68    83    82    2
    69    31    30    1
    70    30    33    1
    71    93    90    1
    72    93    94    1
    73    46    47    1
    74    82    81    1
    75    84    81    1
    76    90    89    1
    77    33    34    1
    78    63    64    2
    79    79    78    1
    80    34    35    1
    81    50    47    1
    82    81    80    1
    83    95    94   ar
    84    36    35   ar
    85    94    96   ar
    86    35    37   ar
    87    47    48    1
    88    77    78   ar
    89    77    75   ar
    90    78    76   ar
    91    48    49    2
    92    75    73   ar
    93    76    74   ar
    94    58    60   ar
    95    58    56   ar
    96    60    59   ar
    97    56    55    1
    98    56    57   ar
    99    59    57   ar
   100    55    52    1
   101    71    70    2
   102    73    74   ar
   103    73    72    1
   104    70    69    1
   105    52    53    1
   106    52    51    1
   107    53    54    2
   108    72    69    1
   109    69    68    1
