@<TRIPOS>MOLECULE
tmp/2cycA00.pdb
 121 115 0 0 0
SMALL
GASTEIGER

@<TRIPOS>ATOM
      1  N         68.7240   52.2450   20.8940 N.3    37  TYR37      -0.1241
      2  CA        67.3260   52.2650   21.2360 C.3    37  TYR37       0.1605
      3  C         66.7660   53.6190   20.8410 C.2    37  TYR37       0.2264
      4  O         67.5000   54.6010   20.6890 O.2    37  TYR37      -0.2867
      5  CB        67.1030   52.0130   22.7380 C.3    37  TYR37       0.0534
      6  CG        66.6750   53.2200   23.5630 C.ar   37  TYR37      -0.0201
      7  CD1       65.5010   53.1870   24.3310 C.ar   37  TYR37      -0.0009
      8  CD2       67.4810   54.3640   23.6410 C.ar   37  TYR37      -0.0009
      9  CE1       65.1520   54.2580   25.1670 C.ar   37  TYR37       0.0417
     10  CE2       67.1400   55.4430   24.4680 C.ar   37  TYR37       0.0417
     11  CZ        65.9840   55.3790   25.2320 C.ar   37  TYR37       0.1957
     12  OH        65.7010   56.4040   26.1000 O.3    37  TYR37      -0.2866
     13  N         62.8940   55.4360   21.8190 N.3    39  GLY39      -0.1210
     14  CA        61.6030   55.2450   22.4460 C.3    39  GLY39       0.1956
     15  C         60.5110   56.0690   21.8000 C.2    39  GLY39       0.2612
     16  O         60.7620   57.1310   21.2280 O.2    39  GLY39      -0.2717
     17  N         59.2830   55.5750   21.8870 N.am   40  PHE40      -0.1962
     18  CA        58.1630   56.2900   21.3050 C.3    40  PHE40       0.1771
     19  C         56.9810   56.2540   22.2420 C.2    40  PHE40       0.2619
     20  O         56.7040   55.2390   22.8860 O.2    40  PHE40      -0.2715
     21  CB        57.6920   55.6460   20.0000 C.3    40  PHE40       0.0574
     22  CG        58.7520   55.4960   18.9660 C.ar   40  PHE40      -0.0200
     23  CD1       59.5420   54.3480   18.9220 C.ar   40  PHE40      -0.0042
     24  CD2       58.9460   56.4860   18.0100 C.ar   40  PHE40      -0.0042
     25  CE1       60.5020   54.1900   17.9360 C.ar   40  PHE40      -0.0003
     26  CE2       59.9080   56.3330   17.0180 C.ar   40  PHE40      -0.0003
     27  CZ        60.6840   55.1820   16.9840 C.ar   40  PHE40      -0.0000
     28  N         56.2740   57.3650   22.3090 N.am   41  GLU41      -0.1977
     29  CA        55.0610   57.3950   23.0940 C.3    41  GLU41       0.1602
     30  C         54.0470   56.6680   22.2040 C.2    41  GLU41       0.2287
     31  O         54.2320   56.5810   20.9880 O.2    41  GLU41      -0.2864
     32  CB        54.6150   58.8310   23.3310 C.3    41  GLU41       0.0415
     33  CG        55.3390   59.5180   24.4940 C.3    41  GLU41       0.1163
     34  CD        54.5800   60.7390   25.0010 C.2    41  GLU41       0.3649
     35  OE1       53.4340   60.9480   24.5520 O.co2  41  GLU41      -0.2457
     36  OE2       55.1220   61.4820   25.8460 O.co2  41  GLU41      -0.2457
     37  N         61.7220   50.9790   21.6260 N.3    71  PHE71      -0.1241
     38  CA        61.2120   51.0310   22.9940 C.3    71  PHE71       0.1605
     39  C         59.8090   51.6560   22.9830 C.2    71  PHE71       0.2264
     40  O         59.6510   52.8340   22.6370 O.2    71  PHE71      -0.2867
     41  CB        62.1820   51.8880   23.8210 C.3    71  PHE71       0.0534
     42  CG        61.9200   51.8940   25.3050 C.ar   71  PHE71      -0.0203
     43  CD1       62.2570   50.7930   26.0940 C.ar   71  PHE71      -0.0042
     44  CD2       61.4280   53.0440   25.9300 C.ar   71  PHE71      -0.0042
     45  CE1       62.1180   50.8360   27.4850 C.ar   71  PHE71      -0.0003
     46  CE2       61.2810   53.1020   27.3240 C.ar   71  PHE71      -0.0003
     47  CZ        61.6320   51.9910   28.1020 C.ar   71  PHE71      -0.0000
     48  N         57.1500   53.1750   24.9130 N.3    73  ALA73      -0.1245
     49  CA        57.0040   53.8520   26.2070 C.3    73  ALA73       0.1562
     50  C         55.5820   53.9140   26.7530 C.2    73  ALA73       0.2260
     51  O         54.9740   54.9930   26.7680 O.2    73  ALA73      -0.2867
     52  CB        57.5910   55.2660   26.0970 C.3    73  ALA73       0.0290
     53  N         55.0670   55.8890   30.1930 N.3    76  HIS76      -0.1241
     54  CA        55.3840   57.2730   29.8440 C.3    76  HIS76       0.1621
     55  C         54.1730   57.9170   29.1690 C.2    76  HIS76       0.2264
     56  O         53.8160   59.0480   29.4780 O.2    76  HIS76      -0.2867
     57  CB        56.5830   57.3510   28.8820 C.3    76  HIS76       0.0745
     58  CG        57.8070   56.6380   29.3670 C.ar   76  HIS76       0.0817
     59  ND1       57.8870   55.2630   29.4450 N.ar   76  HIS76      -0.2268
     60  CD2       59.0200   57.1090   29.7480 C.ar   76  HIS76       0.1154
     61  CE1       59.0990   54.9180   29.8470 C.ar   76  HIS76       0.1986
     62  NE2       59.8060   56.0200   30.0380 N.ar   76  HIS76      -0.2212
     63  N         60.4810   67.7770   26.1160 N.3   152  ILE152     -0.1231
     64  CA        60.6720   66.5260   25.3900 C.3   152  ILE152      0.1692
     65  C         59.3630   65.7490   25.2760 C.2   152  ILE152      0.2591
     66  O         59.2370   64.8610   24.4240 O.2   152  ILE152     -0.2718
     67  CB        61.7640   65.5980   26.0320 C.3   152  ILE152      0.0266
     68  CG1       61.3270   65.1210   27.4190 C.3   152  ILE152      0.0019
     69  CG2       63.1060   66.3320   26.0980 C.3   152  ILE152      0.0020
     70  CD1       62.3500   64.1980   28.0990 C.3   152  ILE152      0.0001
     71  N         58.3850   66.0710   26.1210 N.am  153  MET153     -0.1979
     72  CA        57.1130   65.3660   26.0430 C.3   153  MET153      0.1605
     73  C         56.0360   66.2280   25.4070 C.2   153  MET153      0.2287
     74  O         54.8380   65.9500   25.5250 O.2   153  MET153     -0.2864
     75  CB        56.6790   64.8390   27.4190 C.3   153  MET153      0.0413
     76  CG        56.1980   65.8440   28.4330 C.3   153  MET153      0.0598
     77  SD        56.0750   65.0170   30.0770 S.3   153  MET153     -0.1393
     78  CE        57.5850   65.3960   30.6510 C.3   153  MET153      0.0692
     79  N         58.6520   61.7720   34.4090 N.3   168  TYR168     -0.1241
     80  CA        58.8600   61.3060   33.0300 C.3   168  TYR168      0.1605
     81  C         60.2850   61.5180   32.4640 C.2   168  TYR168      0.2264
     82  O         60.9130   60.5820   31.9660 O.2   168  TYR168     -0.2867
     83  CB        57.8040   61.9840   32.1290 C.3   168  TYR168      0.0534
     84  CG        57.7870   61.6110   30.6490 C.ar  168  TYR168     -0.0201
     85  CD1       56.6000   61.2200   30.0370 C.ar  168  TYR168     -0.0009
     86  CD2       58.9240   61.7410   29.8460 C.ar  168  TYR168     -0.0009
     87  CE1       56.5310   60.9730   28.6700 C.ar  168  TYR168      0.0417
     88  CE2       58.8660   61.4970   28.4700 C.ar  168  TYR168      0.0417
     89  CZ        57.6630   61.1130   27.8920 C.ar  168  TYR168      0.1957
     90  OH        57.5830   60.8620   26.5370 O.3   168  TYR168     -0.2866
     91  N         63.1050   58.6710   31.2910 N.3   172  GLN172     -0.1245
     92  CA        63.6990   58.5660   29.9580 C.3   172  GLN172      0.1566
     93  C         65.2050   58.4010   30.0810 C.2   172  GLN172      0.2260
     94  O         65.8090   57.6060   29.3520 O.2   172  GLN172     -0.2867
     95  CB        63.3780   59.7990   29.0900 C.3   172  GLN172      0.0367
     96  CG        63.8930   59.6810   27.6250 C.3   172  GLN172      0.0905
     97  CD        63.1170   60.5490   26.6370 C.2   172  GLN172      0.2608
     98  OE1       61.9870   60.9460   26.9120 O.2   172  GLN172     -0.2717
     99  NE2       63.7120   60.8220   25.4670 N.am  172  GLN172     -0.0878
    100  N         65.8960   54.9070   31.4070 N.3   175  ASP175     -0.1239
    101  CA        65.6650   53.9120   30.3680 C.3   175  ASP175      0.1674
    102  C         66.9580   53.6460   29.6130 C.2   175  ASP175      0.2266
    103  O         67.2210   52.5200   29.1810 O.2   175  ASP175     -0.2867
    104  CB        64.6250   54.3980   29.3520 C.3   175  ASP175      0.1410
    105  CG        63.2470   54.5420   29.9450 C.2   175  ASP175      0.3668
    106  OD1       62.9640   53.8820   30.9650 O.co2 175  ASP175     -0.2456
    107  OD2       62.4460   55.3030   29.3730 O.co2 175  ASP175     -0.2456
    108  N         67.0960   59.4290   18.8840 N.3   186  ALA186     -0.1245
    109  CA        65.8230   60.1360   18.9870 C.3   186  ALA186      0.1562
    110  C         65.7610   61.2660   17.9720 C.2   186  ALA186      0.2260
    111  O         66.7420   61.5550   17.2850 O.2   186  ALA186     -0.2867
    112  CB        65.6450   60.7250   20.4000 C.3   186  ALA186      0.0290
    113  N         64.2020   65.6160   21.4790 N.3   190  GLN190     -0.1245
    114  CA        64.4530   64.8430   22.6860 C.3   190  GLN190      0.1566
    115  C         65.8690   65.0760   23.2040 C.2   190  GLN190      0.2260
    116  O         66.2440   64.5090   24.2230 O.2   190  GLN190     -0.2867
    117  CB        64.3050   63.3480   22.3970 C.3   190  GLN190      0.0367
    118  CG        62.9620   62.9500   21.8210 C.3   190  GLN190      0.0905
    119  CD        61.8390   63.3330   22.7360 C.2   190  GLN190      0.2608
    120  OE1       61.7730   62.8770   23.8830 O.2   190  GLN190     -0.2717
    121  NE2       60.9430   64.1790   22.2440 N.am  190  GLN190     -0.0878
@<TRIPOS>BOND
     1    27    26   ar
     2    27    25   ar
     3    26    24   ar
     4   111   110    2
     5    25    23   ar
     6   110   109    1
     7    24    22   ar
     8   108   109    1
     9    23    22   ar
    10    22    21    1
    11   109   112    1
    12    21    18    1
    13     4     3    2
    14     3     2    1
    15     1     2    1
    16    31    30    2
    17    16    15    2
    18     2     5    1
    19    18    17    1
    20    18    19    1
    21   113   114    1
    22    37    38    1
    23    15    17   am
    24    15    14    1
    25    13    14    1
    26   118   117    1
    27   118   119    1
    28    30    29    1
    29    19    28   am
    30    19    20    2
    31   121   119   am
    32    28    29    1
    33   117   114    1
    34    40    39    2
    35   114   115    1
    36   119   120    2
    37     5     6    1
    38    39    38    1
    39    38    41    1
    40    29    32    1
    41   115   116    2
    42    32    33    1
    43     6     8   ar
    44     6     7   ar
    45     8    10   ar
    46    41    42    1
    47     7     9   ar
    48    66    65    2
    49    10    11   ar
    50    33    34    1
    51    35    34   ar
    52    48    49    1
    53    34    36   ar
    54     9    11   ar
    55    11    12    1
    56    65    64    1
    57    65    71   am
    58    42    44   ar
    59    42    43   ar
    60    64    67    1
    61    64    63    1
    62    73    74    2
    63    73    72    1
    64    99    97   am
    65    44    46   ar
    66    67    69    1
    67    67    68    1
    68    72    71    1
    69    72    75    1
    70    43    45   ar
    71    52    49    1
    72    49    50    1
    73    90    89    1
    74    97    98    2
    75    97    96    1
    76    50    51    2
    77    46    47   ar
    78    75    76    1
    79    68    70    1
    80    45    47   ar
    81    96    95    1
    82    89    88   ar
    83    89    87   ar
    84    76    77    1
    85    88    86   ar
    86    87    85   ar
    87    57    58    1
    88    57    54    1
    89    95    92    1
    90    55    56    2
    91    55    54    1
    92   103   102    2
    93   104   105    1
    94   104   101    1
    95    94    93    2
    96    58    59   ar
    97    58    60   ar
    98   107   105   ar
    99    59    61   ar
   100   102   101    1
   101    60    62   ar
   102    54    53    1
   103    86    84   ar
   104    61    62   ar
   105   105   106   ar
   106    92    93    1
   107    92    91    1
   108    85    84   ar
   109    77    78    1
   110   101   100    1
   111    84    83    1
   112    82    81    2
   113    83    80    1
   114    81    80    1
   115    80    79    1
