@<TRIPOS>MOLECULE
tmp/2cyeC00.pdb
 99 92 0 0 0
SMALL
GASTEIGER

@<TRIPOS>ATOM
      1  N         17.0280   57.1880   37.7540 N.3    48  GLU48      -0.1245
      2  CA        16.1120   56.3180   38.4880 C.3    48  GLU48       0.1567
      3  C         15.4790   57.0100   39.6960 C.2    48  GLU48       0.2260
      4  O         15.2920   56.3920   40.7480 O.2    48  GLU48      -0.2867
      5  CB        16.8350   55.0530   38.9490 C.3    48  GLU48       0.0388
      6  CG        17.3910   54.2170   37.8100 C.3    48  GLU48       0.1160
      7  CD        18.3460   53.1570   38.3160 C.2    48  GLU48       0.3649
      8  OE1       17.8890   52.0610   38.6960 O.co2  48  GLU48      -0.2457
      9  OE2       19.5600   53.4460   38.3560 O.co2  48  GLU48      -0.2457
     10  N         18.0880   53.6120   44.3390 N.3    52  VAL52      -0.1231
     11  CA        18.8410   52.4660   43.8530 C.3    52  VAL52       0.1692
     12  C         18.0740   51.2840   44.4190 C.2    52  VAL52       0.2592
     13  O         17.4220   51.4070   45.4580 O.2    52  VAL52      -0.2718
     14  CB        20.3180   52.4070   44.3380 C.3    52  VAL52       0.0266
     15  CG1       21.1160   53.5190   43.6570 C.3    52  VAL52       0.0020
     16  CG2       20.4020   52.5100   45.8740 C.3    52  VAL52       0.0020
     17  N         18.1160   50.1560   43.7180 N.am   53  VAL53      -0.1966
     18  CA        17.4170   48.9640   44.1800 C.3    53  VAL53       0.1727
     19  C         18.2870   48.2780   45.2270 C.2    53  VAL53       0.2616
     20  O         19.4270   47.9030   44.9400 O.2    53  VAL53      -0.2715
     21  CB        17.1610   47.9820   43.0110 C.3    53  VAL53       0.0290
     22  CG1       16.4370   46.7260   43.5240 C.3    53  VAL53       0.0023
     23  CG2       16.3470   48.6840   41.9190 C.3    53  VAL53       0.0023
     24  N         17.7510   48.1210   46.4360 N.am   54  ALA54      -0.1963
     25  CA        18.4800   47.4720   47.5270 C.3    54  ALA54       0.1728
     26  C         18.1250   45.9920   47.6230 C.2    54  ALA54       0.2616
     27  O         18.9420   45.1690   48.0230 O.2    54  ALA54      -0.2715
     28  CB        18.1580   48.1570   48.8450 C.3    54  ALA54       0.0334
     29  N         16.8990   45.6610   47.2470 N.am   55  ARG55      -0.1977
     30  CA        16.4370   44.2840   47.3160 C.3    55  ARG55       0.1597
     31  C         15.2400   44.0990   46.4020 C.2    55  ARG55       0.2287
     32  O         14.4350   45.0110   46.2280 O.2    55  ARG55      -0.2864
     33  CB        16.0310   43.9540   48.7670 C.3    55  ARG55       0.0334
     34  CG        15.3520   42.6050   48.9790 C.3    55  ARG55       0.0492
     35  CD        14.9160   42.4400   50.4400 C.3    55  ARG55       0.2205
     36  NE        14.2860   41.1450   50.6840 N.pl3  55  ARG55      -0.0865
     37  CZ        14.9420   39.9940   50.7900 C.cat  55  ARG55       0.5346
     38  NH1       16.2670   39.9630   50.6810 N.pl3  55  ARG55       0.1354
     39  NH2       14.2690   38.8660   50.9950 N.pl3  55  ARG55       0.1354
     40  N          9.5610   54.1890   54.2250 N.3    79  GLY79      -0.1210
     41  CA        10.4470   54.0500   55.3680 C.3    79  GLY79       0.1956
     42  C         11.1240   55.3760   55.6810 C.2    79  GLY79       0.2612
     43  O         10.5090   56.4390   55.5500 O.2    79  GLY79      -0.2717
     44  N         12.3850   55.3180   56.1030 N.am   80  ARG80      -0.1965
     45  CA        13.1480   56.5260   56.4180 C.3    80  ARG80       0.1729
     46  C         13.7950   56.9840   55.1050 C.2    80  ARG80       0.2617
     47  O         13.4310   58.0220   54.5490 O.2    80  ARG80      -0.2715
     48  CB        14.2060   56.1990   57.4880 C.3    80  ARG80       0.0348
     49  CG        15.0800   57.3780   57.9490 C.3    80  ARG80       0.0492
     50  CD        15.8590   57.0030   59.2220 C.3    80  ARG80       0.2205
     51  NE        16.3770   55.6380   59.1260 N.pl3  80  ARG80      -0.0865
     52  CZ        16.8360   54.9180   60.1470 C.cat  80  ARG80       0.5346
     53  NH1       17.2810   53.6830   59.9330 N.pl3  80  ARG80       0.1354
     54  NH2       16.8470   55.4200   61.3770 N.pl3  80  ARG80       0.1354
     55  N         14.7500   56.2000   54.6070 N.am   81  SER81      -0.1936
     56  CA        15.3960   56.5070   53.3380 C.3    81  SER81       0.2055
     57  C         14.9240   55.4850   52.3060 C.2    81  SER81       0.2643
     58  O         15.3680   55.4990   51.1530 O.2    81  SER81      -0.2714
     59  CB        16.9240   56.4240   53.4650 C.3    81  SER81       0.2130
     60  OG        17.3560   55.0820   53.6350 O.3    81  SER81      -0.2179
     61  N         14.0110   54.6080   52.7200 N.am   82  SER82      -0.1949
     62  CA        13.5190   53.5600   51.8300 C.3    82  SER82       0.1924
     63  C         12.0310   53.6020   51.5100 C.2    82  SER82       0.2314
     64  O         11.2500   54.3440   52.1130 O.2    82  SER82      -0.2863
     65  CB        13.8410   52.1860   52.4330 C.3    82  SER82       0.2116
     66  OG        13.0380   51.9390   53.5850 O.3    82  SER82      -0.2180
     67  N         12.7640   46.9110   47.4520 N.3   101  VAL101     -0.1245
     68  CA        13.1150   47.9220   48.4360 C.3   101  VAL101      0.1561
     69  C         14.0060   48.8930   47.6750 C.2   101  VAL101      0.2260
     70  O         15.0700   48.5070   47.1690 O.2   101  VAL101     -0.2867
     71  CB        13.8910   47.3270   49.6560 C.3   101  VAL101      0.0252
     72  CG1       14.3170   48.4410   50.5960 C.3   101  VAL101      0.0019
     73  CG2       13.0100   46.3430   50.4010 C.3   101  VAL101      0.0019
     74  N         16.0020   52.6300   47.7450 N.3   103  VAL103     -0.1245
     75  CA        16.6370   53.5380   48.6960 C.3   103  VAL103      0.1561
     76  C         17.0200   54.8570   48.0400 C.2   103  VAL103      0.2260
     77  O         17.6690   54.8760   46.9940 O.2   103  VAL103     -0.2867
     78  CB        17.9010   52.8850   49.3090 C.3   103  VAL103      0.0252
     79  CG1       18.6130   53.8620   50.2290 C.3   103  VAL103      0.0019
     80  CG2       17.5040   51.6290   50.0800 C.3   103  VAL103      0.0019
     81  N         19.0820   58.1260   47.5620 N.3   105  LEU105     -0.1245
     82  CA        20.4650   58.5430   47.7800 C.3   105  LEU105      0.1561
     83  C         20.7130   60.0270   47.5510 C.2   105  LEU105      0.2260
     84  O         20.1370   60.6420   46.6500 O.2   105  LEU105     -0.2867
     85  CB        21.4170   57.7700   46.8640 C.3   105  LEU105      0.0270
     86  CG        21.4770   56.2420   46.9080 C.3   105  LEU105      0.0019
     87  CD1       22.5370   55.7780   45.9270 C.3   105  LEU105      0.0001
     88  CD2       21.7980   55.7530   48.3160 C.3   105  LEU105      0.0001
     89  N         25.4540   60.0850   47.0490 N.3   108  GLY108     -0.1225
     90  CA        25.8690   58.6940   47.0100 C.3   108  GLY108      0.1811
     91  C         25.5380   57.8530   48.2290 C.2   108  GLY108      0.2280
     92  O         25.9040   56.6830   48.2730 O.2   108  GLY108     -0.2866
     93  N         22.4840   56.8170   51.5300 N.3   110  PRO110     -0.2116
     94  CA        21.0910   56.8910   51.9820 C.3   110  PRO110      0.1372
     95  C         20.7570   58.1780   52.7330 C.2   110  PRO110      0.2244
     96  O         21.5370   58.6410   53.5710 O.2   110  PRO110     -0.2868
     97  CB        20.9500   55.6520   52.8660 C.3   110  PRO110      0.0268
     98  CG        21.8820   54.6740   52.2060 C.3   110  PRO110      0.0207
     99  CD        23.0980   55.5420   51.9330 C.3   110  PRO110      0.0892
@<TRIPOS>BOND
     1     1     2    1
     2     6     7    1
     3     6     5    1
     4     7     9   ar
     5     7     8   ar
     6     2     5    1
     7     2     3    1
     8     3     4    2
     9    23    21    1
    10    21    22    1
    11    21    18    1
    12    15    14    1
    13    17    18    1
    14    17    12   am
    15    11    14    1
    16    11    10    1
    17    11    12    1
    18    18    19    1
    19    14    16    1
    20    12    13    2
    21    20    19    2
    22    19    24   am
    23    87    86    1
    24    32    31    2
    25    31    30    1
    26    24    25    1
    27    84    83    2
    28    85    86    1
    29    85    82    1
    30    86    88    1
    31    77    76    2
    32    90    89    1
    33    90    91    1
    34    70    69    2
    35    29    30    1
    36    29    26   am
    37    30    33    1
    38    67    68    1
    39    25    26    1
    40    25    28    1
    41    83    82    1
    42    81    82    1
    43    26    27    2
    44    69    68    1
    45    74    75    1
    46    76    75    1
    47    91    92    2
    48    68    71    1
    49    75    78    1
    50    33    34    1
    51    34    35    1
    52    78    80    1
    53    78    79    1
    54    71    73    1
    55    71    72    1
    56    35    36    1
    57    38    37    1
    58    36    37    2
    59    37    39    1
    60    58    57    2
    61    63    62    1
    62    63    64    2
    63    93    99    1
    64    93    94    1
    65    62    65    1
    66    62    61    1
    67    99    98    1
    68    94    95    1
    69    94    97    1
    70    98    97    1
    71    57    61   am
    72    57    56    1
    73    65    66    1
    74    95    96    2
    75    56    59    1
    76    56    55    1
    77    59    60    1
    78    40    41    1
    79    47    46    2
    80    55    46   am
    81    46    45    1
    82    41    42    1
    83    43    42    2
    84    42    44   am
    85    44    45    1
    86    45    48    1
    87    48    49    1
    88    49    50    1
    89    51    50    1
    90    51    52    2
    91    53    52    1
    92    52    54    1
