@<TRIPOS>MOLECULE
tmp/2cyeC01.pdb
 90 89 0 0 0
SMALL
GASTEIGER

@<TRIPOS>ATOM
      1  N         14.2980   31.8650   27.2460 N.3    17  ASP17      -0.1239
      2  CA        15.2590   30.8330   27.6140 C.3    17  ASP17       0.1674
      3  C         15.0990   29.8340   26.4560 C.2    17  ASP17       0.2266
      4  O         14.1200   29.9150   25.7030 O.2    17  ASP17      -0.2867
      5  CB        14.8660   30.1500   28.9300 C.3    17  ASP17       0.1410
      6  CG        15.2580   30.9590   30.1380 C.2    17  ASP17       0.3668
      7  OD1       16.2420   31.7220   30.0380 O.co2  17  ASP17      -0.2456
      8  OD2       14.5950   30.8240   31.1880 O.co2  17  ASP17      -0.2456
      9  N         10.3590   30.2140   27.0660 N.3    21  HIS21      -0.1226
     10  CA         9.6370   31.0300   28.0370 C.3    21  HIS21       0.1752
     11  C         10.5770   32.1590   28.4390 C.2    21  HIS21       0.2595
     12  O         11.7930   32.0630   28.2470 O.2    21  HIS21      -0.2718
     13  CB         9.1880   30.2140   29.2620 C.3    21  HIS21       0.0759
     14  CG        10.2900   29.4630   29.9370 C.ar   21  HIS21       0.0818
     15  ND1       10.3980   28.0870   29.8790 N.ar   21  HIS21      -0.2268
     16  CD2       11.3450   29.8930   30.6660 C.ar   21  HIS21       0.1154
     17  CE1       11.4770   27.7060   30.5420 C.ar   21  HIS21       0.1986
     18  NE2       12.0680   28.7830   31.0260 N.ar   21  HIS21      -0.2212
     19  N         10.0160   33.2280   28.9850 N.am   22  VAL22      -0.1980
     20  CA        10.8040   34.3920   29.3690 C.3    22  VAL22       0.1595
     21  C         11.7900   34.1220   30.4970 C.2    22  VAL22       0.2287
     22  O         11.4510   33.5040   31.4980 O.2    22  VAL22      -0.2864
     23  CB         9.8680   35.5670   29.7380 C.3    22  VAL22       0.0276
     24  CG1       10.6660   36.7230   30.3230 C.3    22  VAL22       0.0022
     25  CG2        9.1110   36.0360   28.4770 C.3    22  VAL22       0.0022
     26  N         14.2400   34.4780   33.7310 N.3    24  ASN24      -0.1240
     27  CA        14.0040   35.0290   35.0720 C.3    24  ASN24       0.1653
     28  C         14.4740   36.4730   35.2790 C.2    24  ASN24       0.2266
     29  O         13.8080   37.2660   35.9540 O.2    24  ASN24      -0.2867
     30  CB        14.6460   34.1270   36.1530 C.3    24  ASN24       0.1155
     31  CG        16.1720   34.2050   36.1730 C.2    24  ASN24       0.2627
     32  OD1       16.8680   33.5970   35.3430 O.2    24  ASN24      -0.2716
     33  ND2       16.7000   34.9540   37.1310 N.am   24  ASN24      -0.0877
     34  N         12.2230   39.3250   33.6230 N.3    27  PHE27      -0.1241
     35  CA        11.0120   39.6800   34.3610 C.3    27  PHE27       0.1605
     36  C         11.2490   40.9600   35.1490 C.2    27  PHE27       0.2264
     37  O         10.3420   41.7800   35.3120 O.2    27  PHE27      -0.2867
     38  CB        10.6490   38.5960   35.3730 C.3    27  PHE27       0.0534
     39  CG         9.8060   37.4970   34.8250 C.ar   27  PHE27      -0.0203
     40  CD1        8.4310   37.4610   35.0890 C.ar   27  PHE27      -0.0042
     41  CD2       10.3850   36.4570   34.1150 C.ar   27  PHE27      -0.0042
     42  CE1        7.6620   36.4060   34.6650 C.ar   27  PHE27      -0.0003
     43  CE2        9.6170   35.3870   33.6760 C.ar   27  PHE27      -0.0003
     44  CZ         8.2480   35.3580   33.9540 C.ar   27  PHE27      -0.0000
     45  N          8.5000   36.4100   42.8190 N.3    58  ASP58      -0.1225
     46  CA         7.8700   35.0970   42.7850 C.3    58  ASP58       0.1805
     47  C          7.4380   34.9140   41.3370 C.2    58  ASP58       0.2598
     48  O          6.7200   35.7510   40.7870 O.2    58  ASP58      -0.2718
     49  CB         6.6400   35.0390   43.6990 C.3    58  ASP58       0.1424
     50  CG         7.0050   35.0540   45.1710 C.2    58  ASP58       0.3668
     51  OD1        7.8100   34.1940   45.5890 O.co2  58  ASP58      -0.2456
     52  OD2        6.4860   35.9180   45.9100 O.co2  58  ASP58      -0.2456
     53  N          7.9070   33.8440   40.7100 N.am   59  TYR59      -0.1962
     54  CA         7.5430   33.5690   39.3240 C.3    59  TYR59       0.1771
     55  C          6.4090   32.5560   39.4080 C.2    59  TYR59       0.2619
     56  O          6.6260   31.3810   39.7040 O.2    59  TYR59      -0.2715
     57  CB         8.7500   33.0070   38.5630 C.3    59  TYR59       0.0574
     58  CG         9.9510   33.9420   38.5520 C.ar   59  TYR59      -0.0198
     59  CD1       10.8580   33.9670   39.6200 C.ar   59  TYR59      -0.0009
     60  CD2       10.1790   34.8030   37.4710 C.ar   59  TYR59      -0.0009
     61  CE1       11.9610   34.8130   39.6130 C.ar   59  TYR59       0.0417
     62  CE2       11.2810   35.6620   37.4520 C.ar   59  TYR59       0.0417
     63  CZ        12.1680   35.6590   38.5230 C.ar   59  TYR59       0.1957
     64  OH        13.2660   36.4840   38.4910 O.3    59  TYR59      -0.2866
     65  N          5.1940   33.0430   39.1750 N.am   60  LEU60      -0.1963
     66  CA         3.9790   32.2440   39.2770 C.3    60  LEU60       0.1728
     67  C          3.6220   31.4560   38.0310 C.2    60  LEU60       0.2616
     68  O          3.1850   30.3110   38.1280 O.2    60  LEU60      -0.2715
     69  CB         2.8190   33.1570   39.6550 C.3    60  LEU60       0.0311
     70  CG         3.1450   34.1360   40.7860 C.3    60  LEU60       0.0022
     71  CD1        2.0100   35.1380   40.8980 C.3    60  LEU60       0.0001
     72  CD2        3.3520   33.3850   42.1080 C.3    60  LEU60       0.0001
     73  N          3.7840   32.0790   36.8700 N.am   61  ARG61      -0.1964
     74  CA         3.4940   31.4270   35.6010 C.3    61  ARG61       0.1714
     75  C          4.4990   31.8300   34.5370 C.2    61  ARG61       0.2458
     76  O          4.9620   32.9670   34.5020 O.2    61  ARG61      -0.2730
     77  CB         2.1020   31.7940   35.0870 C.3    61  ARG61       0.0347
     78  CG         0.9610   31.0340   35.7190 C.3    61  ARG61       0.0492
     79  CD         0.2680   31.8670   36.7580 C.3    61  ARG61       0.2205
     80  NE        -1.1280   31.4650   36.9180 N.pl3  61  ARG61      -0.0865
     81  CZ        -1.9730   32.0400   37.7670 C.cat  61  ARG61       0.5346
     82  NH1       -3.2260   31.6160   37.8470 N.pl3  61  ARG61       0.1354
     83  NH2       -1.5620   33.0380   38.5380 N.pl3  61  ARG61       0.1354
     84  N          4.8520   30.8940   33.6490 N.am   62  PRO62      -0.2727
     85  CA         5.8080   31.2490   32.6080 C.3    62  PRO62       0.1402
     86  C          5.1510   32.2200   31.6300 C.2    62  PRO62       0.2269
     87  O          3.9270   32.2270   31.4710 O.2    62  PRO62      -0.2865
     88  CB         6.1290   29.9030   31.9640 C.3    62  PRO62       0.0296
     89  CG         4.8680   29.1490   32.1110 C.3    62  PRO62       0.0237
     90  CD         4.4310   29.4890   33.5250 C.3    62  PRO62       0.0939
@<TRIPOS>BOND
     1     4     3    2
     2     3     2    1
     3     9    10    1
     4     1     2    1
     5     2     5    1
     6    10    11    1
     7    10    13    1
     8    12    11    2
     9    11    19   am
    10    25    23    1
    11     5     6    1
    12    19    20    1
    13    13    14    1
    14    20    23    1
    15    20    21    1
    16    23    24    1
    17    15    14   ar
    18    15    17   ar
    19    14    16   ar
    20     7     6   ar
    21     6     8   ar
    22    21    22    2
    23    17    18   ar
    24    16    18   ar
    25    87    86    2
    26    86    85    1
    27    88    89    1
    28    88    85    1
    29    89    90    1
    30    85    84    1
    31    90    84    1
    32    34    35    1
    33    84    75   am
    34    43    44   ar
    35    43    41   ar
    36    26    27    1
    37    44    42   ar
    38    41    39   ar
    39    35    36    1
    40    35    38    1
    41    76    75    2
    42    75    74    1
    43    42    40   ar
    44    39    40   ar
    45    39    38    1
    46    27    28    1
    47    27    30    1
    48    77    74    1
    49    77    78    1
    50    36    37    2
    51    28    29    2
    52    32    31    2
    53    74    73    1
    54    78    79    1
    55    30    31    1
    56    31    33   am
    57    79    80    1
    58    73    67   am
    59    80    81    2
    60    62    60   ar
    61    62    63   ar
    62    60    58   ar
    63    81    82    1
    64    81    83    1
    65    67    68    2
    66    67    66    1
    67    64    63    1
    68    63    61   ar
    69    58    57    1
    70    58    59   ar
    71    57    54    1
    72    65    66    1
    73    65    55   am
    74    66    69    1
    75    54    55    1
    76    54    53    1
    77    55    56    2
    78    61    59   ar
    79    69    70    1
    80    53    47   am
    81    70    71    1
    82    70    72    1
    83    48    47    2
    84    47    46    1
    85    46    45    1
    86    46    49    1
    87    49    50    1
    88    50    51   ar
    89    50    52   ar
