@<TRIPOS>MOLECULE
tmp/2cz5A00.pdb
 119 110 0 0 0
SMALL
GASTEIGER

@<TRIPOS>ATOM
      1  N          3.1290   -7.6530   15.6830 N.3     5  ALA5       -0.1245
      2  CA         2.8330   -6.4330   16.4240 C.3     5  ALA5        0.1562
      3  C          3.5070   -6.6680   17.7750 C.2     5  ALA5        0.2260
      4  O          2.9360   -7.3190   18.6430 O.2     5  ALA5       -0.2867
      5  CB         1.3340   -6.2650   16.5920 C.3     5  ALA5        0.0290
      6  N          3.9870   -5.4980   20.8110 N.3     7  ASP7       -0.1239
      7  CA         3.5710   -4.5490   21.8130 C.3     7  ASP7        0.1674
      8  C          3.9080   -4.9430   23.2360 C.2     7  ASP7        0.2266
      9  O          3.0330   -5.3500   24.0020 O.2     7  ASP7       -0.2867
     10  CB         2.0770   -4.2610   21.6600 C.3     7  ASP7        0.1410
     11  CG         1.7330   -3.7480   20.2580 C.2     7  ASP7        0.3668
     12  OD1        2.5320   -2.9530   19.6990 O.co2   7  ASP7       -0.2456
     13  OD2        0.6720   -4.1330   19.7360 O.co2   7  ASP7       -0.2456
     14  N          6.1620   -4.7780   13.5830 N.3    29  LYS29      -0.1245
     15  CA         5.4650   -3.5110   13.7730 C.3    29  LYS29       0.1561
     16  C          5.6780   -3.0370   15.2100 C.2    29  LYS29       0.2260
     17  O          5.3290   -3.7380   16.1650 O.2    29  LYS29      -0.2867
     18  CB         3.9760   -3.6890   13.4870 C.3    29  LYS29       0.0271
     19  CG         3.1590   -2.4030   13.5350 C.3    29  LYS29       0.0035
     20  CD         1.7110   -2.6280   13.0360 C.3    29  LYS29       0.0206
     21  CE         0.8630   -3.4890   13.9830 C.3    29  LYS29       0.1093
     22  NZ         0.6210   -2.8300   15.3120 N.3    29  LYS29      -0.1314
     23  N          5.0040   -0.0630   18.0830 N.3    31  ASN31      -0.1240
     24  CA         4.0230    0.9560   18.4290 C.3    31  ASN31       0.1653
     25  C          4.6190    1.7610   19.6000 C.2    31  ASN31       0.2266
     26  O          5.7520    1.5140   20.0230 O.2    31  ASN31      -0.2867
     27  CB         2.6990    0.2750   18.8280 C.3    31  ASN31       0.1155
     28  CG         1.4780    1.1890   18.6790 C.2    31  ASN31       0.2627
     29  OD1        1.4970    2.3490   19.0890 O.2    31  ASN31      -0.2716
     30  ND2        0.3980    0.6480   18.1170 N.am   31  ASN31      -0.0877
     31  N          3.9240    1.7740   13.9120 N.3    57  ASP57      -0.1239
     32  CA         2.4800    1.9840   14.0690 C.3    57  ASP57       0.1674
     33  C          2.2660    3.0830   15.1170 C.2    57  ASP57       0.2266
     34  O          2.1000    2.8410   16.3280 O.2    57  ASP57      -0.2867
     35  CB         1.8010    0.6820   14.4820 C.3    57  ASP57       0.1410
     36  CG         0.2740    0.7710   14.4350 C.2    57  ASP57       0.3668
     37  OD1       -0.2970    1.8850   14.3000 O.co2  57  ASP57      -0.2456
     38  OD2       -0.3600   -0.2920   14.5420 O.co2  57  ASP57      -0.2456
     39  N         -0.1340    5.6500   14.5930 N.3    59  LYS59      -0.1245
     40  CA        -1.4840    6.2100   14.4800 C.3    59  LYS59       0.1561
     41  C         -1.3490    7.7330   14.4460 C.2    59  LYS59       0.2260
     42  O         -2.0620    8.4390   15.1720 O.2    59  LYS59      -0.2867
     43  CB        -2.3540    5.8140   15.6840 C.3    59  LYS59       0.0271
     44  CG        -2.5880    4.3160   15.8940 C.3    59  LYS59       0.0035
     45  CD        -3.3140    3.6790   14.7120 C.3    59  LYS59       0.0206
     46  CE        -3.8580    2.2840   15.0490 C.3    59  LYS59       0.1093
     47  NZ        -2.7990    1.3530   15.5070 N.3    59  LYS59      -0.1314
     48  N        -11.2290   -2.2310   14.2610 N.3   109  SER109     -0.1217
     49  CA       -11.9730   -3.3750   14.7950 C.3   109  SER109      0.1889
     50  C        -12.6600   -3.2720   16.1520 C.2   109  SER109      0.2288
     51  O        -13.5250   -4.0900   16.4780 O.2   109  SER109     -0.2866
     52  CB       -11.0450   -4.5790   14.8410 C.3   109  SER109      0.2089
     53  OG        -9.9310   -4.2930   15.6760 O.3   109  SER109     -0.2183
     54  N         -4.7910   -0.1300    6.4490 N.3   137  ILE137     -0.1245
     55  CA        -5.1380   -1.0700    7.4970 C.3   137  ILE137      0.1561
     56  C         -6.6470   -1.2250    7.5230 C.2   137  ILE137      0.2260
     57  O         -7.3780   -0.2340    7.5990 O.2   137  ILE137     -0.2867
     58  CB        -4.7330   -0.5980    8.9090 C.3   137  ILE137      0.0252
     59  CG1       -3.2400   -0.8550    9.1390 C.3   137  ILE137      0.0019
     60  CG2       -5.6250   -1.3070    9.9480 C.3   137  ILE137      0.0019
     61  CD1       -2.8680   -1.1790   10.5780 C.3   137  ILE137      0.0001
     62  N         -5.2440   -6.5120   10.9230 N.3   162  PRO162     -0.2102
     63  CA        -5.0540   -6.9810   12.2990 C.3   162  PRO162      0.1504
     64  C         -6.3990   -7.5640   12.7660 C.2   162  PRO162      0.2576
     65  O         -7.3590   -7.6200   11.9830 O.2   162  PRO162     -0.2718
     66  CB        -4.6900   -5.7050   13.0350 C.3   162  PRO162      0.0282
     67  CG        -5.5980   -4.7050   12.3880 C.3   162  PRO162      0.0208
     68  CD        -5.4900   -5.0570   10.8960 C.3   162  PRO162      0.0893
     69  N         -6.4670   -7.9970   14.0240 N.am  163  GLY163     -0.1957
     70  CA        -7.7020   -8.5370   14.5650 C.3   163  GLY163      0.1869
     71  C         -8.1780   -9.8020   13.8860 C.2   163  GLY163      0.2309
     72  O         -9.3590  -10.1370   13.9090 O.2   163  GLY163     -0.2863
     73  N         -1.6120   -9.0970   10.5300 N.3   183  ILE183     -0.1231
     74  CA        -0.9840   -8.5100   11.6880 C.3   183  ILE183      0.1692
     75  C         -1.3680   -9.3460   12.8900 C.2   183  ILE183      0.2592
     76  O         -2.5540   -9.5450   13.1710 O.2   183  ILE183     -0.2718
     77  CB        -1.4400   -7.0290   11.8520 C.3   183  ILE183      0.0266
     78  CG1       -0.9090   -6.2130   10.6660 C.3   183  ILE183      0.0019
     79  CG2       -0.9430   -6.4540   13.1690 C.3   183  ILE183      0.0020
     80  CD1       -1.2540   -4.7410   10.7130 C.3   183  ILE183      0.0001
     81  N         -0.3450   -9.8760   13.5600 N.am  184  VAL184     -0.1966
     82  CA        -0.5340  -10.7010   14.7440 C.3   184  VAL184      0.1727
     83  C          0.3070  -10.1370   15.8750 C.2   184  VAL184      0.2617
     84  O          1.5080   -9.9150   15.7150 O.2   184  VAL184     -0.2715
     85  CB        -0.1100  -12.1780   14.5010 C.3   184  VAL184      0.0290
     86  CG1       -0.4990  -13.0180   15.6860 C.3   184  VAL184      0.0023
     87  CG2       -0.7810  -12.7260   13.2270 C.3   184  VAL184      0.0023
     88  N         -0.3260   -9.9350   17.0260 N.am  185  GLY185     -0.1940
     89  CA         0.3780   -9.3820   18.1600 C.3   185  GLY185      0.2014
     90  C          0.3570  -10.3590   19.3090 C.2   185  GLY185      0.2639
     91  O          1.2220  -11.2300   19.3990 O.2   185  GLY185     -0.2714
     92  N         -0.6500  -10.2100   20.1630 N.am  186  ARG186     -0.1963
     93  CA        -0.8390  -11.0430   21.3510 C.3   186  ARG186      0.1729
     94  C         -0.7530  -12.5530   21.1380 C.2   186  ARG186      0.2616
     95  O         -0.1530  -13.2700   21.9430 O.2   186  ARG186     -0.2715
     96  CB        -2.1960  -10.7030   21.9890 C.3   186  ARG186      0.0348
     97  CG        -2.1380   -9.5820   22.9790 C.3   186  ARG186      0.0492
     98  CD        -3.5090   -8.9820   23.2410 C.3   186  ARG186      0.2205
     99  NE        -3.8200   -7.9710   22.2400 N.pl3 186  ARG186     -0.0865
    100  CZ        -4.7280   -7.0160   22.3980 C.cat 186  ARG186      0.5346
    101  NH1       -5.4280   -6.9410   23.5240 N.pl3 186  ARG186      0.1354
    102  NH2       -4.9190   -6.1240   21.4380 N.pl3 186  ARG186      0.1354
    103  N         -1.3590  -13.0410   20.0580 N.am  187  ALA187     -0.1977
    104  CA        -1.3630  -14.4750   19.7640 C.3   187  ALA187      0.1597
    105  C          0.0520  -15.0300   19.7030 C.2   187  ALA187      0.2287
    106  O          0.2690  -16.2280   19.8900 O.2   187  ALA187     -0.2864
    107  CB        -2.0820  -14.7450   18.4320 C.3   187  ALA187      0.0319
    108  N          3.2010  -12.8240   20.8810 N.3   189  TYR189     -0.1241
    109  CA         4.0250  -12.3690   21.9980 C.3   189  TYR189      0.1605
    110  C          3.5900  -12.8250   23.3740 C.2   189  TYR189      0.2264
    111  O          4.3990  -12.7770   24.2960 O.2   189  TYR189     -0.2867
    112  CB         4.2750  -10.8390   21.9840 C.3   189  TYR189      0.0534
    113  CG         3.1050   -9.9160   22.2420 C.ar  189  TYR189     -0.0201
    114  CD1        2.5320   -9.7970   23.5210 C.ar  189  TYR189     -0.0009
    115  CD2        2.6170   -9.0960   21.2240 C.ar  189  TYR189     -0.0009
    116  CE1        1.5030   -8.8790   23.7630 C.ar  189  TYR189      0.0417
    117  CE2        1.5990   -8.1700   21.4540 C.ar  189  TYR189      0.0417
    118  CZ         1.0450   -8.0680   22.7270 C.ar  189  TYR189      0.1957
    119  OH         0.0280   -7.1730   22.9570 O.3   189  TYR189     -0.2866
@<TRIPOS>BOND
     1    54    55    1
     2    55    56    1
     3    55    58    1
     4    56    57    2
     5    58    59    1
     6    58    60    1
     7    59    61    1
     8    73    74    1
     9    78    80    1
    10    78    77    1
    11    68    62    1
    12    68    67    1
    13    62    63    1
    14    74    77    1
    15    74    75    1
    16    77    79    1
    17    65    64    2
    18    63    64    1
    19    63    66    1
    20    67    66    1
    21    64    69   am
    22    75    76    2
    23    75    81   am
    24    20    19    1
    25    20    21    1
    26    87    85    1
    27    18    19    1
    28    18    15    1
    29    81    82    1
    30    14    15    1
    31    15    16    1
    32    71    72    2
    33    71    70    1
    34    31    32    1
    35    21    22    1
    36    69    70    1
    37    32    35    1
    38    32    33    1
    39    48    49    1
    40    37    36   ar
    41    36    35    1
    42    36    38   ar
    43    41    40    1
    44    41    42    2
    45    40    39    1
    46    40    43    1
    47    85    82    1
    48    85    86    1
    49    45    46    1
    50    45    44    1
    51    82    83    1
    52    49    52    1
    53    49    50    1
    54    52    53    1
    55    46    47    1
    56    33    34    2
    57    16    17    2
    58     1     2    1
    59    43    44    1
    60    84    83    2
    61    83    88   am
    62    50    51    2
    63     2     5    1
    64     2     3    1
    65    88    89    1
    66     3     4    2
    67    23    24    1
    68    30    28   am
    69    89    90    1
    70    24    27    1
    71    24    25    1
    72   107   104    1
    73    28    27    1
    74    28    29    2
    75    90    91    2
    76    90    92   am
    77    25    26    2
    78    12    11   ar
    79   105   104    1
    80   105   106    2
    81    13    11   ar
    82   104   103    1
    83   103    94   am
    84    92    93    1
    85    11    10    1
    86     6     7    1
    87   108   109    1
    88    94    93    1
    89    94    95    2
    90   115   117   ar
    91   115   113   ar
    92    93    96    1
    93   102   100    1
    94   117   118   ar
    95    10     7    1
    96     7     8    1
    97   112   109    1
    98   112   113    1
    99    96    97    1
   100   109   110    1
   101    99   100    2
   102    99    98    1
   103   113   114   ar
   104   100   101    1
   105   118   119    1
   106   118   116   ar
   107    97    98    1
   108     8     9    2
   109   110   111    2
   110   114   116   ar
