@<TRIPOS>MOLECULE
tmp/2cz8H01.pdb
 131 130 0 0 0
SMALL
GASTEIGER

@<TRIPOS>ATOM
      1  N         50.0260    9.1430    8.9170 N.3     2  LYS2       -0.1245
      2  CA        48.6380    9.1660    8.4750 C.3     2  LYS2        0.1561
      3  C         47.8320   10.2470    9.1840 C.2     2  LYS2        0.2260
      4  O         48.1410   10.6490   10.3130 O.2     2  LYS2       -0.2867
      5  CB        47.9880    7.8040    8.7290 C.3     2  LYS2        0.0271
      6  CG        48.6230    6.6530    7.9570 C.3     2  LYS2        0.0035
      7  CD        47.9250    5.3290    8.2400 C.3     2  LYS2        0.0206
      8  CE        48.1560    4.8590    9.6680 C.3     2  LYS2        0.1093
      9  NZ        49.5970    4.5950    9.9350 N.3     2  LYS2       -0.1314
     10  N         43.6790   11.4630    9.9280 N.3     4  TYR4       -0.1241
     11  CA        42.2740   11.0920    9.9030 C.3     4  TYR4        0.1605
     12  C         41.4340   12.3450   10.0220 C.2     4  TYR4        0.2264
     13  O         41.9190   13.3940   10.4470 O.2     4  TYR4       -0.2867
     14  CB        41.9330   10.1690   11.0710 C.3     4  TYR4        0.0534
     15  CG        42.7380    8.9020   11.0880 C.ar    4  TYR4       -0.0201
     16  CD1       44.0640    8.9010   11.5200 C.ar    4  TYR4       -0.0009
     17  CD2       42.1900    7.7060   10.6300 C.ar    4  TYR4       -0.0009
     18  CE1       44.8260    7.7390   11.4960 C.ar    4  TYR4        0.0417
     19  CE2       42.9430    6.5370   10.5980 C.ar    4  TYR4        0.0417
     20  CZ        44.2600    6.5620   11.0320 C.ar    4  TYR4        0.1957
     21  OH        45.0240    5.4150   10.9960 O.3     4  TYR4       -0.2866
     22  N         37.3800   13.7710   11.2140 N.3     6  LYS6       -0.1245
     23  CA        36.1740   13.4200   11.9580 C.3     6  LYS6        0.1561
     24  C         35.0320   14.3240   11.5410 C.2     6  LYS6        0.2260
     25  O         35.1730   15.5450   11.5480 O.2     6  LYS6       -0.2867
     26  CB        36.4080   13.5790   13.4670 C.3     6  LYS6        0.0271
     27  CG        37.4290   12.6040   14.0420 C.3     6  LYS6        0.0035
     28  CD        37.7970   12.9430   15.4860 C.3     6  LYS6        0.0206
     29  CE        36.6050   12.8200   16.4210 C.3     6  LYS6        0.1093
     30  NZ        36.9790   13.1280   17.8420 N.3     6  LYS6       -0.1314
     31  N         28.7900    6.3730    4.4960 N.3    29  ARG29      -0.1245
     32  CA        29.3490    5.5030    3.4660 C.3    29  ARG29       0.1563
     33  C         29.0900    5.9970    2.0420 C.2    29  ARG29       0.2260
     34  O         29.8820    5.7340    1.1370 O.2    29  ARG29      -0.2867
     35  CB        28.7820    4.0920    3.6490 C.3    29  ARG29       0.0307
     36  CG        29.4670    2.9970    2.8520 C.3    29  ARG29       0.0489
     37  CD        29.0130    1.6350    3.3580 C.3    29  ARG29       0.2205
     38  NE        29.7520    0.5320    2.7500 N.pl3  29  ARG29      -0.0865
     39  CZ        29.5600    0.0870    1.5130 C.cat  29  ARG29       0.5346
     40  NH1       28.6430    0.6460    0.7350 N.pl3  29  ARG29       0.1354
     41  NH2       30.2900   -0.9220    1.0530 N.pl3  29  ARG29       0.1354
     42  N         31.8810    9.1250    1.8150 N.3    32  LEU32      -0.1231
     43  CA        33.1750    9.0880    2.4840 C.3    32  LEU32       0.1693
     44  C         33.8650    7.7480    2.2930 C.2    32  LEU32       0.2592
     45  O         33.2300    6.7520    1.9560 O.2    32  LEU32      -0.2718
     46  CB        33.0020    9.3950    3.9760 C.3    32  LEU32       0.0284
     47  CG        32.4130   10.7840    4.2420 C.3    32  LEU32       0.0019
     48  CD1       32.1240   10.9420    5.7250 C.3    32  LEU32       0.0001
     49  CD2       33.3820   11.8590    3.7520 C.3    32  LEU32       0.0001
     50  N         35.1760    7.7400    2.4880 N.am   33  ARG33      -0.1966
     51  CA        35.9750    6.5320    2.3360 C.3    33  ARG33       0.1729
     52  C         36.7520    6.2400    3.6080 C.2    33  ARG33       0.2616
     53  O         36.9930    7.1350    4.4160 O.2    33  ARG33      -0.2715
     54  CB        36.9730    6.6980    1.1860 C.3    33  ARG33       0.0348
     55  CG        36.3280    6.9160   -0.1720 C.3    33  ARG33       0.0492
     56  CD        35.6250    5.6540   -0.6290 C.3    33  ARG33       0.2205
     57  NE        36.5640    4.5640   -0.8770 N.pl3  33  ARG33      -0.0865
     58  CZ        37.4250    4.5290   -1.8920 C.cat  33  ARG33       0.5346
     59  NH1       37.4730    5.5250   -2.7680 N.pl3  33  ARG33       0.1354
     60  NH2       38.2370    3.4920   -2.0330 N.pl3  33  ARG33       0.1354
     61  N         37.1350    4.9780    3.7690 N.am   34  HIS34      -0.1959
     62  CA        37.9300    4.5290    4.9040 C.3    34  HIS34       0.1787
     63  C         37.3350    4.8370    6.2730 C.2    34  HIS34       0.2620
     64  O         38.0440    5.2840    7.1760 O.2    34  HIS34      -0.2715
     65  CB        39.3350    5.1230    4.8050 C.3    34  HIS34       0.0785
     66  CG        39.9260    5.0410    3.4310 C.ar   34  HIS34       0.0821
     67  ND1       40.0410    3.8560    2.7390 N.ar   34  HIS34      -0.2267
     68  CD2       40.4270    6.0030    2.6210 C.ar   34  HIS34       0.1154
     69  CE1       40.5860    4.0920    1.5580 C.ar   34  HIS34       0.1986
     70  NE2       40.8290    5.3860    1.4610 N.ar   34  HIS34      -0.2212
     71  N         36.0350    4.6010    6.4230 N.am   35  LEU35      -0.1963
     72  CA        35.3760    4.8300    7.7080 C.3    35  LEU35       0.1728
     73  C         35.9810    3.8390    8.7010 C.2    35  LEU35       0.2616
     74  O         35.9770    2.6240    8.4590 O.2    35  LEU35      -0.2715
     75  CB        33.8660    4.6090    7.5870 C.3    35  LEU35       0.0311
     76  CG        33.1280    5.5250    6.6070 C.3    35  LEU35       0.0022
     77  CD1       31.6420    5.2170    6.6440 C.3    35  LEU35       0.0001
     78  CD2       33.3710    6.9790    6.9670 C.3    35  LEU35       0.0001
     79  N         36.4930    4.3530    9.8190 N.am   36  ASP36      -0.1957
     80  CA        37.1570    3.5040   10.8010 C.3    36  ASP36       0.1840
     81  C         36.5260    3.3660   12.1850 C.2    36  ASP36       0.2622
     82  O         36.4530    2.2590   12.7170 O.2    36  ASP36      -0.2715
     83  CB        38.6150    3.9550   10.9590 C.3    36  ASP36       0.1450
     84  CG        39.4670    3.6000    9.7500 C.2    36  ASP36       0.3671
     85  OD1       39.1950    2.5530    9.1350 O.co2  36  ASP36      -0.2456
     86  OD2       40.4140    4.3480    9.4280 O.co2  36  ASP36      -0.2456
     87  N         36.0870    4.4710   12.7790 N.am   37  TRP37      -0.1960
     88  CA        35.4840    4.3890   14.1050 C.3    37  TRP37       0.1771
     89  C         34.4650    5.4900   14.3240 C.2    37  TRP37       0.2620
     90  O         34.3650    6.4240   13.5340 O.2    37  TRP37      -0.2715
     91  CB        36.5750    4.4710   15.1900 C.3    37  TRP37       0.0590
     92  CG        36.9950    5.8870   15.5570 C.ar   37  TRP37       0.0006
     93  CD1       36.5130    6.6450   16.5920 C.ar   37  TRP37       0.0946
     94  CD2       37.9500    6.7120   14.8720 C.ar   37  TRP37       0.0152
     95  NE1       37.1050    7.8870   16.5910 N.ar   37  TRP37      -0.2442
     96  CE2       37.9870    7.9560   15.5440 C.ar   37  TRP37       0.0810
     97  CE3       38.7750    6.5220   13.7560 C.ar   37  TRP37       0.0012
     98  CZ2       38.8160    9.0090   15.1350 C.ar   37  TRP37       0.0191
     99  CZ3       39.6030    7.5720   13.3480 C.ar   37  TRP37       0.0001
    100  CH2       39.6140    8.7980   14.0380 C.ar   37  TRP37       0.0015
    101  N         33.6730    5.3530   15.3820 N.am   38  PHE38      -0.1960
    102  CA        32.6990    6.3800   15.7210 C.3    38  PHE38       0.1771
    103  C         32.6860    6.5730   17.2260 C.2    38  PHE38       0.2619
    104  O         33.1190    5.7000   17.9830 O.2    38  PHE38      -0.2715
    105  CB        31.2950    6.0250   15.2020 C.3    38  PHE38       0.0574
    106  CG        30.6830    4.8180   15.8510 C.ar   38  PHE38      -0.0200
    107  CD1       29.9360    4.9340   17.0250 C.ar   38  PHE38      -0.0042
    108  CD2       30.8510    3.5560   15.2870 C.ar   38  PHE38      -0.0042
    109  CE1       29.3660    3.8090   17.6190 C.ar   38  PHE38      -0.0003
    110  CE2       30.2830    2.4230   15.8790 C.ar   38  PHE38      -0.0003
    111  CZ        29.5410    2.5490   17.0410 C.ar   38  PHE38      -0.0000
    112  N         32.2140    7.7410   17.6420 N.am   39  GLU39      -0.1977
    113  CA        32.1330    8.1050   19.0530 C.3    39  GLU39       0.1602
    114  C         30.7810    8.7540   19.2740 C.2    39  GLU39       0.2287
    115  O         30.4300    9.7080   18.5820 O.2    39  GLU39      -0.2864
    116  CB        33.2190    9.1300   19.3990 C.3    39  GLU39       0.0415
    117  CG        34.6480    8.6460   19.2230 C.3    39  GLU39       0.1163
    118  CD        35.6590    9.7220   19.5450 C.2    39  GLU39       0.3649
    119  OE1       35.5780   10.2880   20.6570 O.co2  39  GLU39      -0.2457
    120  OE2       36.5310   10.0010   18.6940 O.co2  39  GLU39      -0.2457
    121  N         40.0030    7.6140    7.6110 N.3    64  ARG64      -0.1245
    122  CA        41.3520    7.9180    7.1540 C.3    64  ARG64       0.1563
    123  C         41.3590    8.7190    5.8640 C.2    64  ARG64       0.2260
    124  O         40.6010    8.4260    4.9400 O.2    64  ARG64      -0.2867
    125  CB        42.1490    6.6290    6.9440 C.3    64  ARG64       0.0307
    126  CG        43.6110    6.8690    6.5940 C.3    64  ARG64       0.0489
    127  CD        44.3730    5.5580    6.4750 C.3    64  ARG64       0.2205
    128  NE        43.8600    4.7130    5.3980 N.pl3  64  ARG64      -0.0865
    129  CZ        43.9830    4.9820    4.1010 C.cat  64  ARG64       0.5346
    130  NH1       43.4800    4.1490    3.2010 N.pl3  64  ARG64       0.1354
    131  NH2       44.6090    6.0800    3.7000 N.pl3  64  ARG64       0.1354
@<TRIPOS>BOND
     1    59    58    1
     2    60    58    1
     3    58    57    2
     4    57    56    1
     5    56    55    1
     6    55    54    1
     7    40    39    1
     8    41    39    1
     9    34    33    2
    10    54    51    1
    11    70    69   ar
    12    70    68   ar
    13    39    38    2
    14    69    67   ar
    15    42    43    1
    16    45    44    2
    17    33    32    1
    18    44    43    1
    19    44    50   am
    20    51    50    1
    21    51    52    1
    22    43    46    1
    23    68    66   ar
    24    67    66   ar
    25    38    37    1
    26    36    37    1
    27    36    35    1
    28   130   129    1
    29    66    65    1
    30    32    35    1
    31    32    31    1
    32    52    61   am
    33    52    53    2
    34   131   129    1
    35    49    47    1
    36    61    62    1
    37    46    47    1
    38   129   128    2
    39    47    48    1
    40    65    62    1
    41    62    63    1
    42   124   123    2
    43   128   127    1
    44   123   122    1
    45    63    71   am
    46    63    64    2
    47    71    72    1
    48   127   126    1
    49   126   125    1
    50    76    77    1
    51    76    78    1
    52    76    75    1
    53   125   122    1
    54   122   121    1
    55    75    72    1
    56    72    73    1
    57     6     7    1
    58     6     5    1
    59     7     8    1
    60    74    73    2
    61     2     5    1
    62     2     1    1
    63     2     3    1
    64    73    79   am
    65    85    84   ar
    66     3     4    2
    67    86    84   ar
    68     8     9    1
    69    84    83    1
    70    79    80    1
    71    11    10    1
    72    11    12    1
    73    11    14    1
    74    12    13    2
    75    19    17   ar
    76    19    20   ar
    77    17    15   ar
    78    80    83    1
    79    80    81    1
    80    21    20    1
    81    20    18   ar
    82    14    15    1
    83    15    16   ar
    84    22    23    1
    85    18    16   ar
    86    24    25    2
    87    24    23    1
    88    23    26    1
    89    81    82    2
    90    81    87   am
    91    87    88    1
    92    99    97   ar
    93    99   100   ar
    94    26    27    1
    95    90    89    2
    96    97    94   ar
    97   100    98   ar
    98    27    28    1
    99    88    89    1
   100    88    91    1
   101    89   101   am
   102    94    96   ar
   103    94    92   ar
   104    98    96   ar
   105    91    92    1
   106   105   102    1
   107   105   106    1
   108   108   106   ar
   109   108   110   ar
   110   101   102    1
   111    28    29    1
   112    96    95   ar
   113    92    93   ar
   114   102   103    1
   115   106   107   ar
   116   110   111   ar
   117    29    30    1
   118    95    93   ar
   119   107   109   ar
   120   111   109   ar
   121   103   112   am
   122   103   104    2
   123   112   113    1
   124   115   114    2
   125   120   118   ar
   126   113   114    1
   127   113   116    1
   128   117   116    1
   129   117   118    1
   130   118   119   ar
