@<TRIPOS>MOLECULE
tmp/2czdA00.pdb
 81 74 0 0 0
SMALL
GASTEIGER

@<TRIPOS>ATOM
      1  N         22.6630   -1.9790   -1.6780 N.3     5  ALA5       -0.1245
      2  CA        22.8890   -2.7730   -0.4610 C.3     5  ALA5        0.1562
      3  C         24.4210   -2.9550   -0.4880 C.2     5  ALA5        0.2260
      4  O         24.9360   -3.8570   -1.1480 O.2     5  ALA5       -0.2867
      5  CB        22.1680   -4.1150   -0.5700 C.3     5  ALA5        0.0290
      6  N         27.0180   -4.3760    0.7860 N.3     7  ASP7       -0.1239
      7  CA        27.4290   -5.4960    1.6200 C.3     7  ASP7        0.1674
      8  C         28.8510   -5.9260    1.3300 C.2     7  ASP7        0.2266
      9  O         29.1180   -7.0670    0.9240 O.2     7  ASP7       -0.2867
     10  CB        26.4270   -6.6230    1.4440 C.3     7  ASP7        0.1410
     11  CG        25.0460   -6.2330    1.9340 C.2     7  ASP7        0.3668
     12  OD1       24.9380   -5.2690    2.7290 O.co2   7  ASP7       -0.2456
     13  OD2       24.0790   -6.8920    1.5240 O.co2   7  ASP7       -0.2456
     14  N         32.3050   -5.6010    3.4230 N.3     9  TYR9       -0.1241
     15  CA        32.6380   -5.3790    4.8160 C.3     9  TYR9        0.1605
     16  C         33.9700   -4.7780    5.1990 C.2     9  TYR9        0.2264
     17  O         34.2530   -4.5820    6.3900 O.2     9  TYR9       -0.2867
     18  CB        32.3390   -6.6730    5.5670 C.3     9  TYR9        0.0534
     19  CG        30.9220   -7.1080    5.3060 C.ar    9  TYR9       -0.0201
     20  CD1       30.6300   -8.3880    4.8110 C.ar    9  TYR9       -0.0009
     21  CD2       29.8690   -6.2040    5.4690 C.ar    9  TYR9       -0.0009
     22  CE1       29.3130   -8.7470    4.4810 C.ar    9  TYR9        0.0417
     23  CE2       28.5690   -6.5430    5.1480 C.ar    9  TYR9        0.0417
     24  CZ        28.2880   -7.8040    4.6600 C.ar    9  TYR9        0.1957
     25  OH        26.9790   -8.1350    4.3880 O.3     9  TYR9       -0.2866
     26  N         22.5940    1.5170    1.5060 N.3    29  LYS29      -0.1245
     27  CA        22.1030    0.7980    2.6760 C.3    29  LYS29       0.1561
     28  C         23.2520    0.0000    3.3080 C.2    29  LYS29       0.2260
     29  O         23.9030   -0.8040    2.6290 O.2    29  LYS29      -0.2867
     30  CB        20.9710   -0.1510    2.2590 C.3    29  LYS29       0.0271
     31  CG        20.3450   -0.9280    3.4310 C.3    29  LYS29       0.0035
     32  CD        19.1560   -1.7860    2.9550 C.3    29  LYS29       0.0206
     33  CE        19.5840   -3.0130    2.1550 C.3    29  LYS29       0.1093
     34  NZ        20.3020   -4.0210    3.0070 N.3    29  LYS29      -0.1314
     35  N         24.6800   -2.4700    6.7100 N.3    31  ASN31      -0.1240
     36  CA        24.1400   -3.3740    7.7270 C.3    31  ASN31       0.1653
     37  C         25.0700   -3.5390    8.9180 C.2    31  ASN31       0.2266
     38  O         26.1410   -2.9170    8.9670 O.2    31  ASN31      -0.2867
     39  CB        23.8090   -4.7280    7.0980 C.3    31  ASN31       0.1155
     40  CG        25.0250   -5.4240    6.5350 C.2    31  ASN31       0.2627
     41  OD1       26.1650   -5.0310    6.8190 O.2    31  ASN31      -0.2716
     42  ND2       24.7980   -6.4770    5.7440 N.am   31  ASN31      -0.0877
     43  N         27.1370   -6.0130    9.8860 N.3    33  PRO33      -0.2116
     44  CA        28.5130   -6.4520    9.6050 C.3    33  PRO33       0.1372
     45  C         29.4300   -5.2980    9.1790 C.2    33  PRO33       0.2244
     46  O         30.5810   -5.2180    9.6180 O.2    33  PRO33      -0.2868
     47  CB        28.3210   -7.4880    8.5040 C.3    33  PRO33       0.0268
     48  CG        27.0080   -8.1880    8.9500 C.3    33  PRO33       0.0207
     49  CD        26.1480   -6.9630    9.3320 C.3    33  PRO33       0.0892
     50  N         20.3950   -0.5900    7.8410 N.3    57  ASP57      -0.1239
     51  CA        19.5450   -1.7970    7.8430 C.3    57  ASP57       0.1674
     52  C         19.8800   -2.5990    9.0900 C.2    57  ASP57       0.2266
     53  O         20.6280   -3.5960    9.0490 O.2    57  ASP57      -0.2867
     54  CB        19.8260   -2.6150    6.5740 C.3    57  ASP57       0.1410
     55  CG        18.8390   -3.7490    6.3790 C.2    57  ASP57       0.3668
     56  OD1       18.0820   -4.0350    7.3300 O.co2  57  ASP57      -0.2456
     57  OD2       18.8250   -4.3650    5.2830 O.co2  57  ASP57      -0.2456
     58  N         17.3040   -3.5900   11.3620 N.3    59  LYS59      -0.1245
     59  CA        16.1330   -4.4080   11.7340 C.3    59  LYS59       0.1561
     60  C         16.0050   -4.4400   13.2620 C.2    59  LYS59       0.2260
     61  O         15.9370   -5.5160   13.8830 O.2    59  LYS59      -0.2867
     62  CB        16.2490   -5.8270   11.1480 C.3    59  LYS59       0.0271
     63  CG        16.3230   -5.8250    9.5990 C.3    59  LYS59       0.0035
     64  CD        16.2360   -7.2400    9.0500 C.3    59  LYS59       0.0206
     65  CE        16.2770   -7.2560    7.5330 C.3    59  LYS59       0.1093
     66  NZ        17.5890   -6.7770    7.0070 N.3    59  LYS59      -0.1314
     67  N         13.6920   -5.3420   -2.6280 N.3   162  PRO162     -0.2116
     68  CA        14.9340   -6.0840   -2.8630 C.3   162  PRO162      0.1372
     69  C         14.5460   -7.3810   -3.5650 C.2   162  PRO162      0.2244
     70  O         13.3600   -7.6880   -3.6880 O.2   162  PRO162     -0.2868
     71  CB        15.4360   -6.3610   -1.4550 C.3   162  PRO162      0.0268
     72  CG        14.1500   -6.6200   -0.7020 C.3   162  PRO162      0.0207
     73  CD        13.2070   -5.5490   -1.2500 C.3   162  PRO162      0.0892
     74  N         16.1750   -2.2390   -4.3630 N.3   183  ILE183     -0.1245
     75  CA        17.3930   -2.5140   -3.5980 C.3   183  ILE183      0.1561
     76  C         18.2330   -3.5040   -4.3880 C.2   183  ILE183      0.2260
     77  O         17.7640   -4.5890   -4.7600 O.2   183  ILE183     -0.2867
     78  CB        17.0570   -3.0900   -2.2360 C.3   183  ILE183      0.0252
     79  CG1       16.2860   -2.0350   -1.4360 C.3   183  ILE183      0.0019
     80  CG2       18.3520   -3.4610   -1.4990 C.3   183  ILE183      0.0019
     81  CD1       15.7010   -2.5530   -0.1170 C.3   183  ILE183      0.0001
@<TRIPOS>BOND
     1    77    76    2
     2    76    75    1
     3    74    75    1
     4    70    69    2
     5    75    78    1
     6    69    68    1
     7    68    67    1
     8    68    71    1
     9    67    73    1
    10    78    80    1
    11    78    79    1
    12     1     2    1
    13    71    72    1
    14    79    81    1
    15    73    72    1
    16     4     3    2
    17     5     2    1
    18     3     2    1
    19     6     7    1
    20     9     8    2
    21     8     7    1
    22    10     7    1
    23    10    11    1
    24    26    27    1
    25    13    11   ar
    26    11    12   ar
    27    33    32    1
    28    33    34    1
    29    30    27    1
    30    30    31    1
    31    29    28    2
    32    27    28    1
    33    32    31    1
    34    14    15    1
    35    25    24    1
    36    22    24   ar
    37    22    20   ar
    38    24    23   ar
    39    20    19   ar
    40    15    16    1
    41    15    18    1
    42    23    21   ar
    43    16    17    2
    44    57    55   ar
    45    19    21   ar
    46    19    18    1
    47    42    40   am
    48    55    54    1
    49    55    56   ar
    50    40    41    2
    51    40    39    1
    52    54    51    1
    53    35    36    1
    54    66    65    1
    55    39    36    1
    56    65    64    1
    57    36    37    1
    58    50    51    1
    59    51    52    1
    60    47    48    1
    61    47    44    1
    62    37    38    2
    63    48    49    1
    64    53    52    2
    65    64    63    1
    66    45    44    1
    67    45    46    2
    68    49    43    1
    69    63    62    1
    70    44    43    1
    71    62    59    1
    72    58    59    1
    73    59    60    1
    74    60    61    2
