@<TRIPOS>MOLECULE
tmp/2czeB00.pdb
 159 150 0 0 0
SMALL
GASTEIGER

@<TRIPOS>ATOM
      1  N         -6.5400    2.0660   40.2450 N.3     5  ALA5       -0.1245
      2  CA        -6.2610    2.1740   38.8110 C.3     5  ALA5        0.1562
      3  C         -6.9700    3.4420   38.3430 C.2     5  ALA5        0.2260
      4  O         -8.1800    3.4320   38.0860 O.2     5  ALA5       -0.2867
      5  CB        -6.8130    0.9600   38.0690 C.3     5  ALA5        0.0290
      6  N         -7.7320    5.3300   35.7040 N.3     7  ASP7       -0.1239
      7  CA        -7.8950    5.3900   34.2590 C.3     7  ASP7        0.1674
      8  C         -8.8960    6.4220   33.7480 C.2     7  ASP7        0.2266
      9  O         -9.8790    6.0790   33.1140 O.2     7  ASP7       -0.2867
     10  CB        -8.2710    4.0050   33.7430 C.3     7  ASP7        0.1410
     11  CG        -7.2430    2.9600   34.1160 C.2     7  ASP7        0.3668
     12  OD1       -7.6540    1.8370   34.4570 O.co2   7  ASP7       -0.2456
     13  OD2       -6.0280    3.2750   34.0690 O.co2   7  ASP7       -0.2456
     14  N         -2.0400    3.2960   40.4650 N.3    29  LYS29      -0.1245
     15  CA        -1.5850    2.7540   39.1920 C.3    29  LYS29       0.1561
     16  C         -2.0460    3.6800   38.0760 C.2    29  LYS29       0.2260
     17  O         -3.2340    3.9910   37.9600 O.2    29  LYS29      -0.2867
     18  CB        -2.1600    1.3420   38.9580 C.3    29  LYS29       0.0271
     19  CG        -1.5980    0.6620   37.6960 C.3    29  LYS29       0.0035
     20  CD        -2.0460   -0.7900   37.5390 C.3    29  LYS29       0.0206
     21  CE        -3.5180   -0.9010   37.1700 C.3    29  LYS29       0.1093
     22  NZ        -3.7700   -0.2830   35.8340 N.3    29  LYS29      -0.1314
     23  N         -2.0350    4.3540   33.9050 N.3    31  ASN31      -0.1240
     24  CA        -1.9470    3.5970   32.6500 C.3    31  ASN31       0.1653
     25  C         -1.8740    4.6430   31.5290 C.2    31  ASN31       0.2266
     26  O         -1.8810    5.8520   31.7950 O.2    31  ASN31      -0.2867
     27  CB        -3.1980    2.7160   32.4830 C.3    31  ASN31       0.1155
     28  CG        -2.9860    1.5110   31.5890 C.2    31  ASN31       0.2627
     29  OD1       -2.3250    1.5940   30.5570 O.2    31  ASN31      -0.2716
     30  ND2       -3.5840    0.3840   31.9680 N.am   31  ASN31      -0.0877
     31  N          1.4410    1.3370   34.7540 N.3    57  ASP57      -0.1239
     32  CA         0.9740    0.1430   34.0540 C.3    57  ASP57       0.1674
     33  C          1.0520    0.4370   32.5540 C.2    57  ASP57       0.2266
     34  O          0.0810    0.8710   31.9300 O.2    57  ASP57      -0.2867
     35  CB        -0.4600   -0.1920   34.4860 C.3    57  ASP57       0.1410
     36  CG        -0.9510   -1.5240   33.9190 C.2    57  ASP57       0.3668
     37  OD1       -0.1400   -2.2510   33.2980 O.co2  57  ASP57      -0.2456
     38  OD2       -2.1480   -1.8370   34.0900 O.co2  57  ASP57      -0.2456
     39  N          2.4480   -1.9550   30.3730 N.3    59  LYS59      -0.1245
     40  CA         2.3940   -3.2290   29.6530 C.3    59  LYS59       0.1561
     41  C          3.4130   -3.1910   28.5200 C.2    59  LYS59       0.2260
     42  O          3.0930   -3.5570   27.3810 O.2    59  LYS59      -0.2867
     43  CB         0.9970   -3.4540   29.0620 C.3    59  LYS59       0.0271
     44  CG        -0.1120   -3.6030   30.0930 C.3    59  LYS59       0.0035
     45  CD        -0.3050   -5.0420   30.5000 C.3    59  LYS59       0.0206
     46  CE        -1.3440   -5.1560   31.5850 C.3    59  LYS59       0.1093
     47  NZ        -2.5470   -4.3760   31.1960 N.3    59  LYS59      -0.1314
     48  N         -3.4430  -12.5900   32.5730 N.3   108  MET108     -0.1230
     49  CA        -4.3500  -11.4400   32.5810 C.3   108  MET108      0.1702
     50  C         -5.7750  -11.8290   32.9720 C.2   108  MET108      0.2593
     51  O         -6.1340  -13.0020   32.9440 O.2   108  MET108     -0.2718
     52  CB        -4.3140  -10.7350   31.2190 C.3   108  MET108      0.0401
     53  CG        -2.9450  -10.1230   30.9430 C.3   108  MET108      0.0596
     54  SD        -2.8170   -9.1890   29.3980 S.3   108  MET108     -0.1393
     55  CE        -3.8310   -7.7330   29.7530 C.3   108  MET108      0.0692
     56  N         -6.5800  -10.8260   33.3000 N.am  109  SER109     -0.1938
     57  CA        -7.9460  -11.0240   33.7840 C.3   109  SER109      0.2055
     58  C         -9.0980  -11.0850   32.7820 C.2   109  SER109      0.2643
     59  O        -10.1850  -11.5620   33.1330 O.2   109  SER109     -0.2714
     60  CB        -8.2610   -9.9310   34.8120 C.3   109  SER109      0.2130
     61  OG        -8.2710   -8.6490   34.1910 O.3   109  SER109     -0.2179
     62  N         -8.8850  -10.6070   31.5560 N.am  110  HIS110     -0.1973
     63  CA        -9.9600  -10.5990   30.5500 C.3   110  HIS110      0.1656
     64  C        -10.1290  -11.9370   29.8140 C.2   110  HIS110      0.2291
     65  O         -9.2390  -12.7900   29.8190 O.2   110  HIS110     -0.2864
     66  CB        -9.7090   -9.4810   29.5300 C.3   110  HIS110      0.0771
     67  CG        -8.4650   -9.6830   28.7160 C.ar  110  HIS110      0.0820
     68  ND1       -7.2200   -9.8450   29.2860 N.ar  110  HIS110     -0.2267
     69  CD2       -8.2800   -9.7730   27.3790 C.ar  110  HIS110      0.1154
     70  CE1       -6.3200  -10.0270   28.3340 C.ar  110  HIS110      0.1986
     71  NE2       -6.9370   -9.9860   27.1670 N.ar  110  HIS110     -0.2212
     72  N          1.4090   -9.8750   37.7350 N.3   137  ILE137     -0.1245
     73  CA        -0.0290   -9.6780   37.5630 C.3   137  ILE137      0.1561
     74  C         -0.6650  -11.0610   37.4550 C.2   137  ILE137      0.2260
     75  O         -0.2080  -11.8930   36.6670 O.2   137  ILE137     -0.2867
     76  CB        -0.3480   -8.8950   36.2710 C.3   137  ILE137      0.0252
     77  CG1        0.1780   -7.4590   36.3910 C.3   137  ILE137      0.0019
     78  CG2       -1.8720   -8.9120   35.9990 C.3   137  ILE137      0.0019
     79  CD1       -0.4110   -6.6930   37.5780 C.3   137  ILE137      0.0001
     80  N         -5.6970   -7.5180   39.2610 N.3   162  PRO162     -0.2102
     81  CA        -6.6860   -6.5790   38.7160 C.3   162  PRO162      0.1504
     82  C         -7.8900   -7.4470   38.3470 C.2   162  PRO162      0.2576
     83  O         -7.8060   -8.6790   38.4260 O.2   162  PRO162     -0.2718
     84  CB        -5.9930   -6.0280   37.4830 C.3   162  PRO162      0.0282
     85  CG        -5.2350   -7.2500   36.9770 C.3   162  PRO162      0.0208
     86  CD        -4.6360   -7.8010   38.2740 C.3   162  PRO162      0.0893
     87  N         -8.9980   -6.8290   37.9480 N.am  163  GLY163     -0.1943
     88  CA       -10.1650   -7.6120   37.5740 C.3   163  GLY163      0.2014
     89  C        -11.1660   -7.7050   38.7120 C.2   163  GLY163      0.2638
     90  O        -12.0780   -8.5440   38.7050 O.2   163  GLY163     -0.2714
     91  N        -10.9860   -6.8230   39.6920 N.am  164  ILE164     -0.1977
     92  CA       -11.8450   -6.7650   40.8640 C.3   164  ILE164      0.1596
     93  C        -12.9160   -5.6970   40.6690 C.2   164  ILE164      0.2287
     94  O        -12.6030   -4.5440   40.3700 O.2   164  ILE164     -0.2864
     95  CB       -11.0020   -6.4440   42.1140 C.3   164  ILE164      0.0276
     96  CG1       -9.8940   -7.4930   42.2570 C.3   164  ILE164      0.0022
     97  CG2      -11.8810   -6.3650   43.3480 C.3   164  ILE164      0.0022
     98  CD1      -10.4100   -8.9390   42.3830 C.3   164  ILE164      0.0001
     99  N        -15.5520   -4.1730   38.4630 N.3   166  ALA166     -0.1231
    100  CA       -16.1100   -4.0610   37.1150 C.3   166  ALA166      0.1694
    101  C        -16.0390   -5.3600   36.3140 C.2   166  ALA166      0.2591
    102  O        -17.0150   -5.7480   35.6720 O.2   166  ALA166     -0.2718
    103  CB       -15.4050   -2.9230   36.3450 C.3   166  ALA166      0.0304
    104  N        -14.8860   -6.0270   36.3390 N.am  167  GLN167     -0.1979
    105  CA       -14.7240   -7.2770   35.6000 C.3   167  GLN167      0.1601
    106  C        -15.3560   -8.4990   36.2740 C.2   167  GLN167      0.2287
    107  O        -15.3510   -9.5900   35.6980 O.2   167  GLN167     -0.2864
    108  CB       -13.2420   -7.5450   35.3320 C.3   167  GLN167      0.0394
    109  CG       -12.6030   -6.5120   34.4160 C.3   167  GLN167      0.0908
    110  CD       -11.1100   -6.7390   34.2500 C.2   167  GLN167      0.2608
    111  OE1      -10.6770   -7.8100   33.8210 O.2   167  GLN167     -0.2717
    112  NE2      -10.3170   -5.7330   34.5920 N.am  167  GLN167     -0.0878
    113  N         -5.9910   -4.5720   42.5270 N.3   183  ILE183     -0.1231
    114  CA        -6.1000   -3.3720   41.7120 C.3   183  ILE183      0.1692
    115  C         -7.5660   -3.1010   41.4650 C.2   183  ILE183      0.2592
    116  O         -8.3160   -4.0010   41.0820 O.2   183  ILE183     -0.2718
    117  CB        -5.3750   -3.6010   40.3670 C.3   183  ILE183      0.0266
    118  CG1       -3.8600   -3.6840   40.6140 C.3   183  ILE183      0.0019
    119  CG2       -5.7390   -2.5070   39.3550 C.3   183  ILE183      0.0020
    120  CD1       -3.1070   -4.3710   39.4890 C.3   183  ILE183      0.0001
    121  N         -7.9830   -1.8650   41.6890 N.am  184  VAL184     -0.1966
    122  CA        -9.3780   -1.5240   41.4650 C.3   184  VAL184      0.1727
    123  C         -9.4620   -0.2190   40.7280 C.2   184  VAL184      0.2617
    124  O         -8.8710    0.7650   41.1580 O.2   184  VAL184     -0.2715
    125  CB       -10.1560   -1.3760   42.7930 C.3   184  VAL184      0.0290
    126  CG1      -11.6180   -1.0770   42.5010 C.3   184  VAL184      0.0023
    127  CG2      -10.0290   -2.6370   43.5970 C.3   184  VAL184      0.0023
    128  N        -10.1840   -0.2170   39.6100 N.am  185  GLY185     -0.1940
    129  CA       -10.3390    1.0050   38.8610 C.3   185  GLY185      0.2014
    130  C        -11.7590    1.5330   38.8880 C.2   185  GLY185      0.2639
    131  O        -12.1270    2.3190   39.7640 O.2   185  GLY185     -0.2714
    132  N        -12.5490    1.0920   37.9120 N.am  186  ARG186     -0.1963
    133  CA       -13.9200    1.5430   37.7460 C.3   186  ARG186      0.1729
    134  C        -14.8140    1.4770   38.9770 C.2   186  ARG186      0.2616
    135  O        -15.5970    2.4040   39.2330 O.2   186  ARG186     -0.2715
    136  CB       -14.5610    0.7750   36.5920 C.3   186  ARG186      0.0348
    137  CG       -14.1120    1.2950   35.2230 C.3   186  ARG186      0.0492
    138  CD       -14.4880    0.3400   34.1260 C.3   186  ARG186      0.2205
    139  NE       -13.6740   -0.8720   34.1460 N.pl3 186  ARG186     -0.0865
    140  CZ       -13.8370   -1.8820   33.2920 C.cat 186  ARG186      0.5346
    141  NH1      -14.7820   -1.8140   32.3530 N.pl3 186  ARG186      0.1354
    142  NH2      -13.0700   -2.9660   33.3800 N.pl3 186  ARG186      0.1354
    143  N        -14.7100    0.3940   39.7380 N.am  187  ALA187     -0.1977
    144  CA       -15.5360    0.2510   40.9330 C.3   187  ALA187      0.1597
    145  C        -15.3630    1.4620   41.8330 C.2   187  ALA187      0.2287
    146  O        -16.2470    1.7760   42.6300 O.2   187  ALA187     -0.2864
    147  CB       -15.1680   -1.0220   41.6880 C.3   187  ALA187      0.0319
    148  N        -13.4480    4.7620   40.5950 N.3   189  TYR189     -0.1241
    149  CA       -13.5650    6.0100   39.8510 C.3   189  TYR189      0.1605
    150  C        -14.8750    6.2150   39.0990 C.2   189  TYR189      0.2264
    151  O        -15.1690    7.3330   38.6730 O.2   189  TYR189     -0.2867
    152  CB       -12.3380    6.2290   38.9310 C.3   189  TYR189      0.0534
    153  CG       -12.2290    5.3840   37.6720 C.ar  189  TYR189     -0.0201
    154  CD1      -13.1040    5.5720   36.5940 C.ar  189  TYR189     -0.0009
    155  CD2      -11.2020    4.4470   37.5330 C.ar  189  TYR189     -0.0009
    156  CE1      -12.9540    4.8510   35.4020 C.ar  189  TYR189      0.0417
    157  CE2      -11.0440    3.7270   36.3660 C.ar  189  TYR189      0.0417
    158  CZ       -11.9200    3.9290   35.2960 C.ar  189  TYR189      0.1957
    159  OH       -11.7470    3.1950   34.1410 O.3   189  TYR189     -0.2866
@<TRIPOS>BOND
     1    71    69   ar
     2    71    70   ar
     3    69    67   ar
     4    42    41    2
     5    70    68   ar
     6    41    40    1
     7    67    68   ar
     8    67    66    1
     9    43    40    1
    10    43    44    1
    11    54    55    1
    12    54    53    1
    13    66    63    1
    14    40    39    1
    15    64    65    2
    16    64    63    1
    17    44    45    1
    18    45    46    1
    19    63    62    1
    20    29    28    2
    21    53    52    1
    22    47    46    1
    23    52    49    1
    24    25    26    2
    25    25    24    1
    26    62    58   am
    27    28    30   am
    28    28    27    1
    29    34    33    2
    30   141   140    1
    31    27    24    1
    32    33    32    1
    33    48    49    1
    34    49    50    1
    35    24    23    1
    36    58    59    2
    37    58    57    1
    38    51    50    2
    39    50    56   am
    40     9     8    2
    41   140   142    1
    42   140   139    2
    43    37    36   ar
    44    56    57    1
    45    10    11    1
    46    10     7    1
    47     8     7    1
    48    57    60    1
    49   111   110    2
    50    36    38   ar
    51    36    35    1
    52    32    35    1
    53    32    31    1
    54    13    11   ar
    55    11    12   ar
    56   138   139    1
    57   138   137    1
    58   159   158    1
    59    61    60    1
    60   110   109    1
    61   110   112   am
    62     7     6    1
    63   109   108    1
    64   137   136    1
    65   158   156   ar
    66   158   157   ar
    67   108   105    1
    68   156   154   ar
    69   105   106    1
    70   105   104    1
    71   102   101    2
    72   107   106    2
    73    22    21    1
    74    78    76    1
    75    76    77    1
    76    76    73    1
    77   101   104   am
    78   101   100    1
    79   103   100    1
    80   157   155   ar
    81    77    79    1
    82   136   133    1
    83   154   153   ar
    84    75    74    2
    85    85    84    1
    86    85    86    1
    87   100    99    1
    88    21    20    1
    89    74    73    1
    90    84    81    1
    91   155   153   ar
    92    20    19    1
    93    73    72    1
    94    88    87    1
    95    88    89    1
    96   153   152    1
    97    19    18    1
    98   133   132    1
    99   133   134    1
   100   132   130   am
   101    87    82   am
   102    17    16    2
   103     5     2    1
   104    16    15    1
   105     4     3    2
   106    86    80    1
   107     3     2    1
   108    82    83    2
   109    82    81    1
   110   151   150    2
   111    90    89    2
   112    89    91   am
   113    81    80    1
   114     2     1    1
   115   129   130    1
   116   129   128    1
   117   130   131    2
   118   152   149    1
   119    18    15    1
   120   134   135    2
   121   134   143   am
   122   150   149    1
   123    15    14    1
   124   119   117    1
   125   120   118    1
   126   128   123   am
   127    91    92    1
   128   143   144    1
   129   149   148    1
   130   117   118    1
   131   117   114    1
   132    94    93    2
   133    93    92    1
   134   123   124    2
   135   123   122    1
   136    92    95    1
   137   144   147    1
   138   144   145    1
   139   116   115    2
   140   115   121   am
   141   115   114    1
   142   122   121    1
   143   122   125    1
   144   114   113    1
   145   145   146    2
   146    95    96    1
   147    95    97    1
   148    96    98    1
   149   126   125    1
   150   125   127    1
