@<TRIPOS>MOLECULE
tmp/2czfA00.pdb
 176 166 0 0 0
SMALL
GASTEIGER

@<TRIPOS>ATOM
      1  N         -8.8470   -7.4250   -3.2730 N.3     5  ALA5       -0.1245
      2  CA        -8.4380   -6.6710   -2.0890 C.3     5  ALA5        0.1562
      3  C         -9.2720   -5.3940   -2.1240 C.2     5  ALA5        0.2260
      4  O         -8.8990   -4.4120   -2.7670 O.2     5  ALA5       -0.2867
      5  CB        -6.9620   -6.3450   -2.1670 C.3     5  ALA5        0.0290
      6  N         -9.6410   -2.5970   -0.9840 N.3     7  ASP7       -0.1239
      7  CA        -9.0200   -1.4890   -0.2760 C.3     7  ASP7        0.1674
      8  C         -9.5320   -0.1520   -0.7610 C.2     7  ASP7        0.2266
      9  O         -8.7480    0.7430   -1.1080 O.2     7  ASP7       -0.2867
     10  CB        -7.5070   -1.5300   -0.4320 C.3     7  ASP7        0.1410
     11  CG        -6.9450   -2.8300    0.0710 C.2     7  ASP7        0.3668
     12  OD1       -7.5920   -3.4520    0.9260 O.co2   7  ASP7       -0.2456
     13  OD2       -5.8440   -3.2160   -0.3910 O.co2   7  ASP7       -0.2456
     14  N        -11.1800   -9.8670    0.1090 N.3    29  LYS29      -0.1245
     15  CA       -10.3280   -9.6570    1.2850 C.3    29  LYS29       0.1561
     16  C        -10.5410   -8.2560    1.8600 C.2    29  LYS29       0.2260
     17  O        -10.4270   -7.2700    1.1350 O.2    29  LYS29      -0.2867
     18  CB        -8.8410   -9.8180    0.9300 C.3    29  LYS29       0.0271
     19  CG        -7.8920   -9.5750    2.1180 C.3    29  LYS29       0.0035
     20  CD        -6.4150   -9.7710    1.7710 C.3    29  LYS29       0.0206
     21  CE        -5.7990   -8.5480    1.1100 C.3    29  LYS29       0.1093
     22  NZ        -5.8440   -7.3900    2.0390 N.3    29  LYS29      -0.1314
     23  N         -9.6060   -5.4530    5.1590 N.3    31  ASN31      -0.1240
     24  CA        -8.5900   -5.1780    6.1630 C.3    31  ASN31       0.1653
     25  C         -9.1190   -4.3380    7.3300 C.2    31  ASN31       0.2266
     26  O        -10.3130   -3.9990    7.3870 O.2    31  ASN31      -0.2867
     27  CB        -7.4050   -4.4660    5.5060 C.3    31  ASN31       0.1155
     28  CG        -7.8240   -3.2110    4.7710 C.2    31  ASN31       0.2627
     29  OD1       -8.8900   -2.6370    5.0430 O.2    31  ASN31      -0.2716
     30  ND2       -6.9810   -2.7630    3.8430 N.am   31  ASN31      -0.0877
     31  N         -8.2840   -9.7940    6.5140 N.3    57  ASP57      -0.1239
     32  CA        -6.8470   -9.6020    6.6100 C.3    57  ASP57       0.1674
     33  C         -6.5670   -8.8250    7.8850 C.2    57  ASP57       0.2266
     34  O         -6.4680   -7.6030    7.8600 O.2    57  ASP57      -0.2867
     35  CB        -6.3450   -8.8100    5.4000 C.3    57  ASP57       0.1410
     36  CG        -4.8380   -8.7510    5.3350 C.2    57  ASP57       0.3668
     37  OD1       -4.1870   -9.3050    6.2500 O.co2  57  ASP57      -0.2456
     38  OD2       -4.3080   -8.1540    4.3730 O.co2  57  ASP57      -0.2456
     39  N         -4.0880  -10.0330   10.2920 N.3    59  LYS59      -0.1245
     40  CA        -2.7280  -10.3250   10.7620 C.3    59  LYS59       0.1561
     41  C         -2.7050  -10.3650   12.3000 C.2    59  LYS59       0.2260
     42  O         -1.8970   -9.6910   12.9500 O.2    59  LYS59      -0.2867
     43  CB        -1.7330   -9.2920   10.2200 C.3    59  LYS59       0.0271
     44  CG        -1.5580   -9.4170    8.7070 C.3    59  LYS59       0.0035
     45  CD        -0.3970   -8.6140    8.1570 C.3    59  LYS59       0.0206
     46  CE        -0.3700   -8.7160    6.6440 C.3    59  LYS59       0.1093
     47  NZ        -1.5940   -8.1100    6.0460 N.3    59  LYS59      -0.1314
     48  N         -6.5520  -13.9840    8.4870 N.3    83  ILE83      -0.1245
     49  CA        -5.1030  -14.0610    8.3090 C.3    83  ILE83       0.1561
     50  C         -4.4710  -13.7830    9.6710 C.2    83  ILE83       0.2260
     51  O         -4.8440  -12.8310   10.3490 O.2    83  ILE83      -0.2867
     52  CB        -4.5990  -13.0300    7.2680 C.3    83  ILE83       0.0252
     53  CG1       -5.2150  -13.3300    5.8930 C.3    83  ILE83       0.0019
     54  CG2       -3.0810  -13.0780    7.2070 C.3    83  ILE83       0.0019
     55  CD1       -4.8390  -12.3360    4.8020 C.3    83  ILE83       0.0001
     56  N          0.7600  -16.0120    7.9550 N.3   105  VAL105     -0.1245
     57  CA         1.7850  -15.1480    7.3640 C.3   105  VAL105      0.1561
     58  C          3.1680  -15.7650    7.6180 C.2   105  VAL105      0.2260
     59  O          3.5930  -15.8640    8.7590 O.2   105  VAL105     -0.2867
     60  CB         1.7540  -13.7530    8.0050 C.3   105  VAL105      0.0252
     61  CG1        2.9520  -12.9360    7.5390 C.3   105  VAL105      0.0019
     62  CG2        0.4460  -13.0660    7.6560 C.3   105  VAL105      0.0019
     63  N          5.9330  -14.8960    5.3260 N.3   107  GLU107     -0.1231
     64  CA         6.8900  -13.9940    4.6730 C.3   107  GLU107      0.1699
     65  C          6.1990  -12.6860    4.2760 C.2   107  GLU107      0.2592
     66  O          5.0120  -12.6870    3.9700 O.2   107  GLU107     -0.2718
     67  CB         7.4630  -14.6610    3.4190 C.3   107  GLU107      0.0402
     68  CG         8.3860  -13.7600    2.6020 C.3   107  GLU107      0.1161
     69  CD         9.0680  -14.5100    1.4700 C.2   107  GLU107      0.3649
     70  OE1        9.6310  -15.5890    1.7360 O.co2 107  GLU107     -0.2457
     71  OE2        9.0470  -14.0210    0.3210 O.co2 107  GLU107     -0.2457
     72  N          6.9370  -11.5730    4.2720 N.am  108  MET108     -0.1965
     73  CA         6.3430  -10.2840    3.9180 C.3   108  MET108      0.1736
     74  C          7.1760   -9.5320    2.8680 C.2   108  MET108      0.2617
     75  O          8.3500   -9.8350    2.6720 O.2   108  MET108     -0.2715
     76  CB         6.1310   -9.4510    5.1890 C.3   108  MET108      0.0427
     77  CG         5.1390  -10.1090    6.1560 C.3   108  MET108      0.0599
     78  SD         4.6610   -9.0310    7.5170 S.3   108  MET108     -0.1393
     79  CE         3.5200   -7.9050    6.6670 C.3   108  MET108      0.0692
     80  N          6.5810   -8.5520    2.1950 N.am  109  SER109     -0.1936
     81  CA         7.3180   -7.8860    1.1280 C.3   109  SER109      0.2055
     82  C          7.8410   -6.4710    1.3330 C.2   109  SER109      0.2643
     83  O          8.4450   -5.9150    0.4180 O.2   109  SER109     -0.2714
     84  CB         6.4910   -7.9320   -0.1660 C.3   109  SER109      0.2130
     85  OG         5.5160   -6.9060   -0.1890 O.3   109  SER109     -0.2179
     86  N          7.6270   -5.8820    2.5040 N.am  110  HIS110     -0.1973
     87  CA         8.1250   -4.5330    2.7410 C.3   110  HIS110      0.1656
     88  C          9.5860   -4.5960    3.2270 C.2   110  HIS110      0.2291
     89  O         10.0490   -5.6320    3.7200 O.2   110  HIS110     -0.2864
     90  CB         7.2490   -3.8120    3.7720 C.3   110  HIS110      0.0771
     91  CG         7.2250   -4.4830    5.1130 C.ar  110  HIS110      0.0820
     92  ND1        6.7820   -5.7740    5.2870 N.ar  110  HIS110     -0.2267
     93  CD2        7.6100   -4.0480    6.3380 C.ar  110  HIS110      0.1154
     94  CE1        6.8950   -6.1100    6.5610 C.ar  110  HIS110      0.1986
     95  NE2        7.3950   -5.0790    7.2220 N.ar  110  HIS110     -0.2212
     96  N          0.2450  -16.8810    2.9980 N.3   137  ILE137     -0.1245
     97  CA         0.4290  -15.7670    2.0720 C.3   137  ILE137      0.1561
     98  C          1.8610  -15.8230    1.5660 C.2   137  ILE137      0.2260
     99  O          2.7800  -16.1480    2.3190 O.2   137  ILE137     -0.2867
    100  CB         0.2480  -14.3940    2.7620 C.3   137  ILE137      0.0252
    101  CG1       -1.1990  -14.2060    3.2260 C.3   137  ILE137      0.0019
    102  CG2        0.6640  -13.2860    1.7920 C.3   137  ILE137      0.0019
    103  CD1       -2.1750  -13.8660    2.1080 C.3   137  ILE137      0.0001
    104  N          4.2100  -13.2690   -0.8930 N.3   139  PRO139     -0.2116
    105  CA         4.3260  -12.1180   -1.8000 C.3   139  PRO139      0.1372
    106  C          4.7050  -12.6300   -3.1820 C.2   139  PRO139      0.2244
    107  O          5.6920  -13.3470   -3.3320 O.2   139  PRO139     -0.2868
    108  CB         5.4290  -11.2790   -1.1570 C.3   139  PRO139      0.0268
    109  CG         6.2630  -12.3170   -0.4180 C.3   139  PRO139      0.0207
    110  CD         5.1970  -13.1910    0.1980 C.3   139  PRO139      0.0892
    111  N         -0.3160  -11.7630   -2.9920 N.3   162  PRO162     -0.2102
    112  CA        -0.6200  -10.3480   -3.2200 C.3   162  PRO162      0.1504
    113  C          0.5800   -9.7460   -3.9640 C.2   162  PRO162      0.2576
    114  O          1.5760  -10.4350   -4.2040 O.2   162  PRO162     -0.2718
    115  CB        -0.7600   -9.8010   -1.8110 C.3   162  PRO162      0.0282
    116  CG         0.2710  -10.5900   -1.0560 C.3   162  PRO162      0.0208
    117  CD         0.0790  -11.9930   -1.5880 C.3   162  PRO162      0.0893
    118  N          0.4960   -8.4730   -4.3300 N.am  163  GLY163     -0.1943
    119  CA         1.6070   -7.8540   -5.0310 C.3   163  GLY163      0.2014
    120  C          1.8770   -8.4300   -6.4110 C.2   163  GLY163      0.2638
    121  O          3.0300   -8.6810   -6.8000 O.2   163  GLY163     -0.2714
    122  N          0.8070   -8.6570   -7.1620 N.am  164  ILE164     -0.1977
    123  CA         0.9400   -9.1750   -8.5120 C.3   164  ILE164      0.1596
    124  C          1.1700   -7.9740   -9.4210 C.2   164  ILE164      0.2287
    125  O          0.4460   -6.9730   -9.3310 O.2   164  ILE164     -0.2864
    126  CB        -0.3340   -9.9270   -8.9460 C.3   164  ILE164      0.0276
    127  CG1       -0.5630  -11.1180   -8.0070 C.3   164  ILE164      0.0022
    128  CG2       -0.2050  -10.3980  -10.3840 C.3   164  ILE164      0.0022
    129  CD1        0.6250  -12.0720   -7.9100 C.3   164  ILE164      0.0001
    130  N         -4.0060  -12.2550   -5.1590 N.3   183  ILE183     -0.1231
    131  CA        -4.7370  -11.1920   -4.4970 C.3   183  ILE183      0.1692
    132  C         -4.4830   -9.9100   -5.2570 C.2   183  ILE183      0.2592
    133  O         -3.3520   -9.4380   -5.3180 O.2   183  ILE183     -0.2718
    134  CB        -4.2720  -11.0260   -3.0340 C.3   183  ILE183      0.0266
    135  CG1       -4.5270  -12.3250   -2.2700 C.3   183  ILE183      0.0019
    136  CG2       -5.0430   -9.8890   -2.3490 C.3   183  ILE183      0.0020
    137  CD1       -4.0240  -12.2970   -0.8400 C.3   183  ILE183      0.0001
    138  N         -5.5370   -9.3550   -5.8450 N.am  184  VAL184     -0.1966
    139  CA        -5.4080   -8.1190   -6.6150 C.3   184  VAL184      0.1727
    140  C         -6.3120   -7.0300   -6.0700 C.2   184  VAL184      0.2617
    141  O         -7.4750   -7.2760   -5.7600 O.2   184  VAL184     -0.2715
    142  CB        -5.7660   -8.3300   -8.1010 C.3   184  VAL184      0.0290
    143  CG1       -5.6180   -7.0090   -8.8610 C.3   184  VAL184      0.0023
    144  CG2       -4.8680   -9.3960   -8.7130 C.3   184  VAL184      0.0023
    145  N         -5.7620   -5.8220   -5.9560 N.am  185  GLY185     -0.1940
    146  CA        -6.5350   -4.6980   -5.4650 C.3   185  GLY185      0.2014
    147  C         -6.6240   -3.5720   -6.4890 C.2   185  GLY185      0.2639
    148  O         -7.5620   -3.5160   -7.2880 O.2   185  GLY185     -0.2714
    149  N         -5.6340   -2.6820   -6.4640 N.am  186  ARG186     -0.1963
    150  CA        -5.5710   -1.5330   -7.3690 C.3   186  ARG186      0.1729
    151  C         -6.0090   -1.8340   -8.8020 C.2   186  ARG186      0.2616
    152  O         -7.0590   -1.3740   -9.2570 O.2   186  ARG186     -0.2715
    153  CB        -4.1490   -0.9710   -7.4230 C.3   186  ARG186      0.0348
    154  CG        -3.5480   -0.6340   -6.0770 C.3   186  ARG186      0.0492
    155  CD        -2.4960    0.4640   -6.1760 C.3   186  ARG186      0.2205
    156  NE        -1.1260   -0.0270   -6.3170 N.pl3 186  ARG186     -0.0865
    157  CZ        -0.0500    0.7450   -6.1640 C.cat 186  ARG186      0.5346
    158  NH1       -0.1950    2.0310   -5.8650 N.pl3 186  ARG186      0.1354
    159  NH2        1.1700    0.2340   -6.3030 N.pl3 186  ARG186      0.1354
    160  N         -5.1790   -2.5970   -9.5050 N.am  187  ALA187     -0.1977
    161  CA        -5.4220   -2.9470  -10.8970 C.3   187  ALA187      0.1597
    162  C         -6.8660   -3.3010  -11.2230 C.2   187  ALA187      0.2287
    163  O         -7.2310   -3.3840  -12.3940 O.2   187  ALA187     -0.2864
    164  CB        -4.4950   -4.0910  -11.3120 C.3   187  ALA187      0.0319
    165  N        -10.0500   -2.4270   -8.6570 N.3   189  TYR189     -0.1241
    166  CA       -10.9540   -1.4070   -8.1280 C.3   189  TYR189      0.1605
    167  C        -10.6580    0.0320   -8.5680 C.2   189  TYR189      0.2264
    168  O        -11.4730    0.9250   -8.3470 O.2   189  TYR189     -0.2867
    169  CB       -11.0370   -1.4980   -6.5900 C.3   189  TYR189      0.0534
    170  CG        -9.7780   -1.1340   -5.8220 C.ar  189  TYR189     -0.0201
    171  CD1       -9.2420    0.1490   -5.8840 C.ar  189  TYR189     -0.0009
    172  CD2       -9.1380   -2.0690   -5.0110 C.ar  189  TYR189     -0.0009
    173  CE1       -8.0990    0.4960   -5.1570 C.ar  189  TYR189      0.0417
    174  CE2       -7.9960   -1.7340   -4.2840 C.ar  189  TYR189      0.0417
    175  CZ        -7.4810   -0.4490   -4.3600 C.ar  189  TYR189      0.1957
    176  OH        -6.3550   -0.1030   -3.6450 O.3   189  TYR189     -0.2866
@<TRIPOS>BOND
     1   163   162    2
     2   164   161    1
     3   162   161    1
     4   161   160    1
     5   128   126    1
     6   160   151   am
     7   124   125    2
     8   124   123    1
     9   152   151    2
    10   126   123    1
    11   126   127    1
    12   143   142    1
    13   151   150    1
    14   144   142    1
    15   165   166    1
    16   167   168    2
    17   167   166    1
    18   123   122    1
    19   166   169    1
    20   142   139    1
    21   127   129    1
    22   153   150    1
    23   153   154    1
    24   150   149    1
    25   148   147    2
    26   122   120   am
    27   121   120    2
    28   139   140    1
    29   139   138    1
    30   169   170    1
    31   147   149   am
    32   147   146    1
    33   120   119    1
    34   156   155    1
    35   156   157    2
    36   159   157    1
    37   155   154    1
    38   157   158    1
    39   140   145   am
    40   140   141    2
    41   145   146    1
    42   171   170   ar
    43   171   173   ar
    44   138   132   am
    45   170   172   ar
    46   133   132    2
    47   132   131    1
    48   130   131    1
    49   173   175   ar
    50   119   118    1
    51   172   174   ar
    52   131   134    1
    53   175   174   ar
    54   175   176    1
    55   118   113   am
    56   114   113    2
    57   113   112    1
    58   107   106    2
    59     1     2    1
    60   112   111    1
    61   112   115    1
    62   106   105    1
    63   134   136    1
    64   134   135    1
    65   111   117    1
    66     4     3    2
    67   135   137    1
    68     5     2    1
    69     3     2    1
    70   115   116    1
    71   105   108    1
    72   105   104    1
    73   117   116    1
    74   108   109    1
    75     9     8    2
    76     6     7    1
    77   104   110    1
    78     8     7    1
    79    10     7    1
    80    10    11    1
    81   109   110    1
    82    13    11   ar
    83    85    84    1
    84    84    81    1
    85    11    12   ar
    86    14    15    1
    87    71    69   ar
    88    83    82    2
    89    18    15    1
    90    18    19    1
    91    21    20    1
    92    21    22    1
    93    81    82    1
    94    81    80    1
    95    17    16    2
    96    15    16    1
    97    82    86   am
    98    69    70   ar
    99    69    68    1
   100    98    97    1
   101    98    99    2
   102    20    19    1
   103   102   100    1
   104    97   100    1
   105    97    96    1
   106   103   101    1
   107    80    74   am
   108    86    87    1
   109    68    67    1
   110    75    74    2
   111    87    88    1
   112    87    90    1
   113   100   101    1
   114    74    73    1
   115    88    89    2
   116    67    64    1
   117    90    91    1
   118    30    28   am
   119    73    72    1
   120    73    76    1
   121    66    65    2
   122    72    65   am
   123    65    64    1
   124    38    36   ar
   125    64    63    1
   126    28    29    2
   127    28    27    1
   128    55    53    1
   129    91    92   ar
   130    91    93   ar
   131    23    24    1
   132    76    77    1
   133    92    94   ar
   134    36    35    1
   135    36    37   ar
   136    35    32    1
   137    27    24    1
   138    53    52    1
   139    47    46    1
   140    77    78    1
   141    24    25    1
   142    93    95   ar
   143    31    32    1
   144    94    95   ar
   145    32    33    1
   146    46    45    1
   147    79    78    1
   148    54    52    1
   149    52    49    1
   150    25    26    2
   151    57    58    1
   152    57    56    1
   153    57    60    1
   154    61    60    1
   155    58    59    2
   156    62    60    1
   157    34    33    2
   158    45    44    1
   159    49    48    1
   160    49    50    1
   161    44    43    1
   162    50    51    2
   163    43    40    1
   164    39    40    1
   165    40    41    1
   166    41    42    2
