@<TRIPOS>MOLECULE
tmp/2czsA01.pdb
 160 160 0 0 0
SMALL
GASTEIGER

@<TRIPOS>ATOM
      1  N         -7.1200    7.0180    8.9770 N.3     2  ARG2       -0.1231
      2  CA        -6.0140    7.9100    9.3230 C.3     2  ARG2        0.1694
      3  C         -4.7450    7.5010    8.5830 C.2     2  ARG2        0.2593
      4  O         -4.4360    6.3150    8.4780 O.2     2  ARG2       -0.2718
      5  CB        -5.7820    7.8980   10.8340 C.3     2  ARG2        0.0321
      6  CG        -6.9470    8.4470   11.6610 C.3     2  ARG2        0.0489
      7  CD        -6.9340    7.8500   13.0750 C.3     2  ARG2        0.2205
      8  NE        -8.0970    8.2520   13.8750 N.pl3   2  ARG2       -0.0865
      9  CZ        -8.1250    9.3070   14.6890 C.cat   2  ARG2        0.5346
     10  NH1       -7.0550   10.0860   14.8210 N.pl3   2  ARG2        0.1354
     11  NH2       -9.2310    9.5900   15.3720 N.pl3   2  ARG2        0.1354
     12  N         -4.0220    8.4820    8.0540 N.am    3  THR3       -0.1939
     13  CA        -2.7460    8.1880    7.3950 C.3     3  THR3        0.2028
     14  C         -1.6100    8.2960    8.4230 C.2     3  THR3        0.2642
     15  O         -1.6670    9.0950    9.3670 O.2     3  THR3       -0.2714
     16  CB        -2.5290    8.9670    6.0350 C.3     3  THR3        0.1808
     17  OG1       -1.2790    9.6730    6.0010 O.3     3  THR3       -0.2208
     18  CG2       -3.6960    9.8420    5.7140 C.3     3  THR3        0.0379
     19  N         -0.6170    7.4390    8.2560 N.am    4  LYS4       -0.1977
     20  CA         0.3640    7.2380    9.2990 C.3     4  LYS4        0.1596
     21  C          1.2940    8.4290    9.5330 C.2     4  LYS4        0.2287
     22  O          1.7110    9.1490    8.5900 O.2     4  LYS4       -0.2864
     23  CB         1.1270    5.9490    9.0640 C.3     4  LYS4        0.0298
     24  CG         0.2410    4.7150    9.1790 C.3     4  LYS4        0.0038
     25  CD         0.9730    3.4730    8.7370 C.3     4  LYS4        0.0206
     26  CE         0.4880    2.2380    9.4680 C.3     4  LYS4        0.1093
     27  NZ         1.5140    1.1630    9.3530 N.3     4  LYS4       -0.1314
     28  N         11.0670   17.4330    3.3660 N.3    29  ASP29      -0.1239
     29  CA        10.5220   16.4760    2.4390 C.3    29  ASP29       0.1674
     30  C         11.5940   15.9590    1.4610 C.2    29  ASP29       0.2266
     31  O         11.5910   14.7960    1.0930 O.2    29  ASP29      -0.2867
     32  CB         9.4190   17.1020    1.5980 C.3    29  ASP29       0.1410
     33  CG         8.1650   17.4250    2.3520 C.2    29  ASP29       0.3668
     34  OD1        7.7990   16.7320    3.3130 O.co2  29  ASP29      -0.2456
     35  OD2        7.4780   18.3570    1.9040 O.co2  29  ASP29      -0.2456
     36  N         13.5490   13.0920    2.8870 N.3    32  CYS32      -0.1221
     37  CA        12.8590   11.7810    3.0370 C.3    32  CYS32       0.1808
     38  C         13.1660   10.7550    1.9250 C.2    32  CYS32       0.2601
     39  O         13.1150    9.5560    2.1900 O.2    32  CYS32      -0.2717
     40  CB        11.3450   11.9280    3.1450 C.3    32  CYS32       0.0970
     41  SG        10.7690   13.2760    4.1800 S.3    32  CYS32      -0.0800
     42  N         13.4030   11.2720    0.7170 N.am   33  VAL33      -0.1979
     43  CA        13.6410   10.5040   -0.5350 C.3    33  VAL33       0.1595
     44  C         14.8850    9.6570   -0.4420 C.2    33  VAL33       0.2287
     45  O         15.0260    8.6610   -1.1670 O.2    33  VAL33      -0.2864
     46  CB        13.7930   11.4550   -1.7790 C.3    33  VAL33       0.0276
     47  CG1       13.5030   10.6920   -3.0960 C.3    33  VAL33       0.0022
     48  CG2       12.8530   12.6380   -1.6830 C.3    33  VAL33       0.0022
     49  N         13.0300    6.7310    1.2730 N.3    36  HIS36      -0.1241
     50  CA        11.7310    6.4300    0.7320 C.3    36  HIS36       0.1621
     51  C         11.7130    6.6780   -0.7650 C.2    36  HIS36       0.2264
     52  O         11.4870    7.7820   -1.2070 O.2    36  HIS36      -0.2867
     53  CB        10.6720    7.2700    1.4480 C.3    36  HIS36       0.0745
     54  CG        10.4800    6.9050    2.8930 C.ar   36  HIS36       0.0817
     55  ND1        9.7160    5.8270    3.2800 N.ar   36  HIS36      -0.2268
     56  CD2       10.9140    7.4900    4.0370 C.ar   36  HIS36       0.1154
     57  CE1        9.6870    5.7560    4.6010 C.ar   36  HIS36       0.1986
     58  NE2       10.4160    6.7460    5.0860 N.ar   36  HIS36      -0.2212
     59  N         13.0830    2.0600    0.7170 N.3    43  ILE43      -0.1231
     60  CA        11.7750    1.6480    1.2050 C.3    43  ILE43       0.1678
     61  C         10.7200    2.0360    0.1910 C.2    43  ILE43       0.2434
     62  O         10.3710    3.2190    0.0460 O.2    43  ILE43      -0.2733
     63  CB        11.4660    2.2610    2.5820 C.3    43  ILE43       0.0265
     64  CG1       12.5930    1.9220    3.5530 C.3    43  ILE43       0.0019
     65  CG2       10.1090    1.7420    3.1010 C.3    43  ILE43       0.0020
     66  CD1       12.4840    2.5860    4.8670 C.3    43  ILE43       0.0001
     67  N         10.2380    1.0490   -0.5670 N.am   44  PRO44      -0.2718
     68  CA         9.3260    1.4450   -1.6330 C.3    44  PRO44       0.1535
     69  C          7.9920    1.8710   -1.0670 C.2    44  PRO44       0.2598
     70  O          7.6000    1.4090   -0.0020 O.2    44  PRO44      -0.2715
     71  CB         9.1860    0.1730   -2.4710 C.3    44  PRO44       0.0310
     72  CG         9.4080   -0.9370   -1.4710 C.3    44  PRO44       0.0237
     73  CD        10.4500   -0.4130   -0.5250 C.3    44  PRO44       0.0939
     74  N          7.3010    2.7500   -1.7770 N.am   45  PHE45      -0.1961
     75  CA         5.9500    3.1410   -1.4100 C.3    45  PHE45       0.1756
     76  C          5.0030    1.9850   -1.6780 C.2    45  PHE45       0.2461
     77  O          5.3150    1.1290   -2.5140 O.2    45  PHE45      -0.2730
     78  CB         5.5270    4.3420   -2.2440 C.3    45  PHE45       0.0574
     79  CG         6.3510    5.5670   -2.0090 C.ar   45  PHE45      -0.0200
     80  CD1        7.3510    5.9350   -2.9060 C.ar   45  PHE45      -0.0042
     81  CD2        6.1310    6.3620   -0.8820 C.ar   45  PHE45      -0.0042
     82  CE1        8.1060    7.0810   -2.6940 C.ar   45  PHE45      -0.0003
     83  CE2        6.8910    7.4980   -0.6620 C.ar   45  PHE45      -0.0003
     84  CZ         7.8700    7.8670   -1.5620 C.ar   45  PHE45      -0.0000
     85  N          3.8360    1.9470   -0.9960 N.am   46  PRO46      -0.2727
     86  CA         2.9580    0.8310   -1.3160 C.3    46  PRO46       0.1402
     87  C          2.3740    1.0180   -2.7070 C.2    46  PRO46       0.2269
     88  O          2.4650    2.1140   -3.2860 O.2    46  PRO46      -0.2865
     89  CB         1.8420    0.9250   -0.2630 C.3    46  PRO46       0.0296
     90  CG         2.2780    1.9520    0.7300 C.3    46  PRO46       0.0237
     91  CD         3.2460    2.8390    0.0240 C.3    46  PRO46       0.0939
     92  N          0.2600    4.2520   -3.7320 N.3    49  HIS49      -0.1227
     93  CA         0.8220    5.4700   -3.1260 C.3    49  HIS49       0.1737
     94  C          0.9520    6.5620   -4.1730 C.2    49  HIS49       0.2438
     95  O          1.2600    6.2700   -5.3280 O.2    49  HIS49      -0.2733
     96  CB         2.1880    5.2370   -2.4810 C.3    49  HIS49       0.0758
     97  CG         2.6020    6.3480   -1.5650 C.ar   49  HIS49       0.0818
     98  ND1        3.2310    7.4940   -2.0060 N.ar   49  HIS49      -0.2268
     99  CD2        2.4040    6.5140   -0.2380 C.ar   49  HIS49       0.1154
    100  CE1        3.4310    8.3080   -0.9830 C.ar   49  HIS49       0.1986
    101  NE2        2.9360    7.7370    0.1010 N.ar   49  HIS49      -0.2212
    102  N          0.6990    7.8200   -3.7860 N.am   50  PRO50      -0.2729
    103  CA         1.0010    8.9110   -4.6990 C.3    50  PRO50       0.1401
    104  C          2.4330    8.8520   -5.2560 C.2    50  PRO50       0.2269
    105  O          3.3480    8.3510   -4.5990 O.2    50  PRO50      -0.2865
    106  CB         0.8640   10.1490   -3.8170 C.3    50  PRO50       0.0296
    107  CG        -0.0420    9.7590   -2.7130 C.3    50  PRO50       0.0237
    108  CD         0.1070    8.2930   -2.5140 C.3    50  PRO50       0.0939
    109  N          7.7460   15.5680   -3.5930 N.3    58  MET58      -0.1230
    110  CA         6.5080   15.0030   -3.0270 C.3    58  MET58       0.1702
    111  C          6.3570   15.5110   -1.5940 C.2    58  MET58       0.2592
    112  O          7.3080   15.4540   -0.7960 O.2    58  MET58      -0.2718
    113  CB         6.5260   13.4960   -3.0500 C.3    58  MET58       0.0401
    114  CG         5.1340   12.8740   -3.0070 C.3    58  MET58       0.0596
    115  SD         5.2110   11.1230   -2.6490 S.3    58  MET58      -0.1393
    116  CE         6.0360   10.4860   -4.1210 C.3    58  MET58       0.0692
    117  N          5.1670   16.0040   -1.2710 N.am   59  ARG59      -0.1966
    118  CA         4.9950   16.7620   -0.0240 C.3    59  ARG59       0.1729
    119  C          4.6970   15.7820    1.1360 C.2    59  ARG59       0.2616
    120  O          3.5490   15.6910    1.6080 O.2    59  ARG59      -0.2715
    121  CB         3.8880   17.8310   -0.1490 C.3    59  ARG59       0.0348
    122  CG         4.1890   18.9980   -1.0790 C.3    59  ARG59       0.0492
    123  CD         3.0510   20.0190   -1.0390 C.3    59  ARG59       0.2205
    124  NE         2.8680   20.6150    0.2830 N.pl3  59  ARG59      -0.0865
    125  CZ         1.7520   21.2250    0.7000 C.cat  59  ARG59       0.5346
    126  NH1        0.6840   21.3150   -0.0890 N.pl3  59  ARG59       0.1354
    127  NH2        1.6930   21.7370    1.9230 N.pl3  59  ARG59       0.1354
    128  N          5.7330   15.0780    1.5910 N.am   60  CYS60      -0.1968
    129  CA         5.5010   14.0070    2.5780 C.3    60  CYS60       0.1712
    130  C          4.7490   14.5190    3.7960 C.2    60  CYS60       0.2296
    131  O          3.7850   13.8850    4.2790 O.2    60  CYS60      -0.2864
    132  CB         6.8130   13.4170    3.0650 C.3    60  CYS60       0.0983
    133  SG         7.9720   12.9490    1.7800 S.3    60  CYS60      -0.0798
    134  N          2.9070   16.8960    4.3680 N.3    62  PHE62      -0.1227
    135  CA         1.5830   17.4660    4.2070 C.3    62  PHE62       0.1736
    136  C          0.5660   16.3860    4.5720 C.2    62  PHE62       0.2596
    137  O         -0.4570   16.6820    5.2300 O.2    62  PHE62      -0.2718
    138  CB         1.3900   17.9550    2.7780 C.3    62  PHE62       0.0547
    139  CG         0.0780   18.6010    2.5500 C.ar   62  PHE62      -0.0202
    140  CD1       -0.3190   19.6670    3.3370 C.ar   62  PHE62      -0.0042
    141  CD2       -0.7600   18.1490    1.5410 C.ar   62  PHE62      -0.0042
    142  CE1       -1.5490   20.2850    3.1350 C.ar   62  PHE62      -0.0003
    143  CE2       -2.0000   18.7680    1.3300 C.ar   62  PHE62      -0.0003
    144  CZ        -2.3900   19.8220    2.1300 C.ar   62  PHE62      -0.0000
    145  N          0.8460   15.1470    4.1630 N.am   63  CYS63      -0.1956
    146  CA        -0.0400   14.0210    4.4880 C.3    63  CYS63       0.1843
    147  C          0.3800   13.2390    5.7110 C.2    63  CYS63       0.2625
    148  O         -0.4720   12.6780    6.4020 O.2    63  CYS63      -0.2714
    149  CB        -0.1400   13.0790    3.3130 C.3    63  CYS63       0.0997
    150  SG        -0.6900   13.9560    1.8380 S.3    63  CYS63      -0.0797
    151  N          1.6830   13.1550    5.9580 N.am   64  HIS64      -0.1973
    152  CA         2.2070   12.3910    7.0940 C.3    64  HIS64       0.1656
    153  C          2.7100   13.3790    8.1390 C.2    64  HIS64       0.2291
    154  O          3.8100   13.9250    8.0290 O.2    64  HIS64      -0.2864
    155  CB         3.3320   11.4150    6.6980 C.3    64  HIS64       0.0771
    156  CG         2.9510   10.4130    5.6660 C.ar   64  HIS64       0.0820
    157  ND1        2.1890    9.2810    5.9380 N.ar   64  HIS64      -0.2267
    158  CD2        3.2430   10.3700    4.3500 C.ar   64  HIS64       0.1154
    159  CE1        2.0560    8.5890    4.8170 C.ar   64  HIS64       0.1986
    160  NE2        2.6930    9.2210    3.8460 N.ar   64  HIS64      -0.2212
@<TRIPOS>BOND
     1    95    94    2
     2   104   103    1
     3   104   105    2
     4   103   106    1
     5   103   102    1
     6    94   102   am
     7    94    93    1
     8   116   115    1
     9   106   107    1
    10   102   108    1
    11    92    93    1
    12   109   110    1
    13    88    87    2
    14    93    96    1
    15    47    46    1
    16   113   110    1
    17   113   114    1
    18   110   111    1
    19   114   115    1
    20    80    82   ar
    21    80    79   ar
    22   107   108    1
    23    87    86    1
    24    82    84   ar
    25    77    76    2
    26    96    97    1
    27    71    68    1
    28    71    72    1
    29    78    79    1
    30    78    75    1
    31    79    81   ar
    32    98    97   ar
    33    98   100   ar
    34    46    48    1
    35    46    43    1
    36    74    75    1
    37    74    69   am
    38    76    75    1
    39    76    85   am
    40    68    69    1
    41    68    67    1
    42   111   117   am
    43   111   112    2
    44    97    99   ar
    45    84    83   ar
    46    72    73    1
    47    86    85    1
    48    86    89    1
    49   117   118    1
    50    52    51    2
    51    45    44    2
    52   122   123    1
    53   122   121    1
    54    69    70    2
    55   123   124    1
    56    85    91    1
    57   100   101   ar
    58    81    83   ar
    59    51    50    1
    60    67    73    1
    61    67    61   am
    62    43    44    1
    63    43    42    1
    64    89    90    1
    65    99   101   ar
    66   121   118    1
    67   126   125    1
    68   118   119    1
    69    91    90    1
    70    62    61    2
    71    61    60    1
    72   124   125    2
    73   125   127    1
    74    42    38   am
    75    59    60    1
    76    50    49    1
    77    50    53    1
    78    31    30    2
    79   119   128   am
    80   119   120    2
    81    60    63    1
    82   143   141   ar
    83   143   144   ar
    84    53    54    1
    85    30    29    1
    86   141   139   ar
    87   128   129    1
    88    32    33    1
    89    32    29    1
    90   133   132    1
    91   150   149    1
    92    35    33   ar
    93    38    39    2
    94    38    37    1
    95   144   142   ar
    96    33    34   ar
    97    29    28    1
    98   139   138    1
    99   139   140   ar
   100   129   132    1
   101   129   130    1
   102    63    65    1
   103    63    64    1
   104   138   135    1
   105    36    37    1
   106    54    55   ar
   107    54    56   ar
   108    37    40    1
   109   142   140   ar
   110    40    41    1
   111    55    57   ar
   112   149   146    1
   113    64    66    1
   114   130   131    2
   115   160   158   ar
   116   160   159   ar
   117    56    58   ar
   118   145   146    1
   119   145   136   am
   120   135   134    1
   121   135   136    1
   122   158   156   ar
   123   146   147    1
   124   136   137    2
   125    57    58   ar
   126   159   157   ar
   127   156   157   ar
   128   156   155    1
   129   147   151   am
   130   147   148    2
   131    18    16    1
   132   151   152    1
   133    17    16    1
   134    16    13    1
   135   155   152    1
   136   152   153    1
   137    13    12    1
   138    13    14    1
   139   154   153    2
   140    12     3   am
   141    19    14   am
   142    19    20    1
   143    14    15    2
   144     4     3    2
   145     3     2    1
   146    22    21    2
   147    25    24    1
   148    25    26    1
   149     1     2    1
   150    23    24    1
   151    23    20    1
   152    20    21    1
   153     2     5    1
   154    27    26    1
   155     5     6    1
   156     6     7    1
   157     7     8    1
   158     8     9    2
   159     9    10    1
   160     9    11    1
