@<TRIPOS>MOLECULE
tmp/2czsA00.pdb
 171 166 0 0 0
SMALL
GASTEIGER

@<TRIPOS>ATOM
      1  N         -0.6170    7.4390    8.2560 N.3     4  LYS4       -0.1231
      2  CA         0.3640    7.2380    9.2990 C.3     4  LYS4        0.1693
      3  C          1.2940    8.4290    9.5330 C.2     4  LYS4        0.2592
      4  O          1.7110    9.1490    8.5900 O.2     4  LYS4       -0.2718
      5  CB         1.1270    5.9490    9.0640 C.3     4  LYS4        0.0285
      6  CG         0.2410    4.7150    9.1790 C.3     4  LYS4        0.0035
      7  CD         0.9730    3.4730    8.7370 C.3     4  LYS4        0.0206
      8  CE         0.4880    2.2380    9.4680 C.3     4  LYS4        0.1093
      9  NZ         1.5140    1.1630    9.3530 N.3     4  LYS4       -0.1314
     10  N          1.5740    8.6640   10.8140 N.am    5  LYS5       -0.1966
     11  CA         2.4460    9.7530   11.2130 C.3     5  LYS5        0.1728
     12  C          3.8920    9.3250   11.0850 C.2     5  LYS5        0.2616
     13  O          4.1970    8.1430   10.9440 O.2     5  LYS5       -0.2715
     14  CB         2.1310   10.1900   12.6430 C.3     5  LYS5        0.0311
     15  CG         0.8780   11.0460   12.7190 C.3     5  LYS5        0.0038
     16  CD         0.3910   11.2250   14.1320 C.3     5  LYS5        0.0206
     17  CE        -0.7250   12.2510   14.1620 C.3     5  LYS5        0.1093
     18  NZ        -1.9610   11.7440   13.4980 N.3     5  LYS5       -0.1314
     19  N          4.7930   10.3100   11.0950 N.am    6  VAL6       -0.1964
     20  CA         6.2110   10.0160   11.0440 C.3     6  VAL6        0.1712
     21  C          6.6490    9.3120   12.3310 C.2     6  VAL6        0.2458
     22  O          6.4300    9.8440   13.4030 O.2     6  VAL6       -0.2730
     23  CB         7.0430   11.3360   10.8320 C.3     6  VAL6        0.0289
     24  CG1        8.5370   11.0410   10.7680 C.3     6  VAL6        0.0023
     25  CG2        6.5990   12.0720    9.5710 C.3     6  VAL6        0.0023
     26  N          7.2500    8.1080   12.2280 N.am    7  PRO7       -0.2727
     27  CA         7.7130    7.4380   13.4600 C.3     7  PRO7        0.1402
     28  C          8.6600    8.2910   14.3020 C.2     7  PRO7        0.2269
     29  O          9.5430    8.9460   13.7510 O.2     7  PRO7       -0.2865
     30  CB         8.4500    6.2020   12.9280 C.3     7  PRO7        0.0296
     31  CG         7.8010    5.9250   11.6690 C.3     7  PRO7        0.0237
     32  CD         7.5030    7.2670   11.0490 C.3     7  PRO7        0.0939
     33  N         11.4670    7.7380   16.0770 N.3     9  ASP9       -0.1239
     34  CA        12.4750    6.6910   16.2690 C.3     9  ASP9        0.1674
     35  C         13.8050    7.1890   15.7670 C.2     9  ASP9        0.2266
     36  O         13.8940    8.3300   15.3380 O.2     9  ASP9       -0.2867
     37  CB        12.0500    5.3730   15.6000 C.3     9  ASP9        0.1410
     38  CG        11.8880    5.4770   14.0890 C.2     9  ASP9        0.3668
     39  OD1       11.3460    4.5100   13.5180 O.co2   9  ASP9       -0.2456
     40  OD2       12.3210    6.4760   13.4860 O.co2   9  ASP9       -0.2456
     41  N         15.4980    6.6130   13.1310 N.3    11  ASN11      -0.1225
     42  CA        15.4580    6.9680   11.7220 C.3    11  ASN11       0.1785
     43  C         14.8460    8.3110   11.3750 C.2    11  ASN11       0.2597
     44  O         15.1060    8.8320   10.2920 O.2    11  ASN11      -0.2718
     45  CB        14.7740    5.8740   10.9100 C.3    11  ASN11       0.1169
     46  CG        15.7110    4.7530   10.5670 C.2    11  ASN11       0.2627
     47  OD1       16.9330    4.9290   10.5710 O.2    11  ASN11      -0.2716
     48  ND2       15.1540    3.6000   10.2770 N.am   11  ASN11      -0.0877
     49  N         14.0400    8.8700   12.2760 N.am   12  HIS12      -0.1975
     50  CA        13.3310   10.1150   11.9580 C.3    12  HIS12       0.1656
     51  C         13.5570   11.2180   12.9530 C.2    12  HIS12       0.2291
     52  O         13.0480   12.3370   12.7610 O.2    12  HIS12      -0.2864
     53  CB        11.8560    9.8080   11.8580 C.3    12  HIS12       0.0771
     54  CG        11.5410    8.7990   10.8090 C.ar   12  HIS12       0.0820
     55  ND1       11.5160    7.4410   11.0540 N.ar   12  HIS12      -0.2267
     56  CD2       11.2410    8.9560    9.5020 C.ar   12  HIS12       0.1154
     57  CE1       11.1880    6.8050    9.9430 C.ar   12  HIS12       0.1986
     58  NE2       11.0260    7.6980    8.9800 N.ar   12  HIS12      -0.2212
     59  N         16.0430   13.1690   13.5540 N.3    14  ARG14      -0.1231
     60  CA        16.6740   14.3940   13.0460 C.3    14  ARG14       0.1694
     61  C         15.6640   15.3010   12.3680 C.2    14  ARG14       0.2592
     62  O         15.8120   16.5050   12.4070 O.2    14  ARG14      -0.2718
     63  CB        17.8710   14.1110   12.1420 C.3    14  ARG14       0.0321
     64  CG        17.5320   13.5630   10.7730 C.3    14  ARG14       0.0489
     65  CD        18.8130   13.2170   10.0150 C.3    14  ARG14       0.2205
     66  NE        18.6370   13.1680    8.5620 N.pl3  14  ARG14      -0.0865
     67  CZ        18.8940   14.1840    7.7370 C.cat  14  ARG14       0.5346
     68  NH1       19.3260   15.3490    8.2150 N.pl3  14  ARG14       0.1354
     69  NH2       18.7170   14.0370    6.4300 N.pl3  14  ARG14       0.1354
     70  N         14.6200   14.7260   11.7780 N.am   15  PHE15      -0.1976
     71  CA        13.5760   15.5570   11.1710 C.3    15  PHE15       0.1639
     72  C         12.6730   16.2300   12.2150 C.2    15  PHE15       0.2290
     73  O         12.3190   17.3810   12.0720 O.2    15  PHE15      -0.2864
     74  CB        12.7810   14.7630   10.1510 C.3    15  PHE15       0.0560
     75  CG        13.6450   14.0270    9.1880 C.ar   15  PHE15      -0.0200
     76  CD1       13.7610   12.6520    9.2530 C.ar   15  PHE15      -0.0042
     77  CD2       14.4140   14.7240    8.2650 C.ar   15  PHE15      -0.0042
     78  CE1       14.5730   11.9590    8.3640 C.ar   15  PHE15      -0.0003
     79  CE2       15.2650   14.0480    7.3880 C.ar   15  PHE15      -0.0003
     80  CZ        15.3120   12.6490    7.4380 C.ar   15  PHE15      -0.0000
     81  N         12.6840   19.5410    4.4180 N.3    28  LEU28      -0.1245
     82  CA        12.6290   18.2360    5.0580 C.3    28  LEU28       0.1561
     83  C         12.1210   17.1540    4.1310 C.2    28  LEU28       0.2260
     84  O         12.6970   16.0540    4.0790 O.2    28  LEU28      -0.2867
     85  CB        11.8210   18.3090    6.3480 C.3    28  LEU28       0.0270
     86  CG        12.4630   19.2200    7.3920 C.3    28  LEU28       0.0019
     87  CD1       11.5340   19.3900    8.5810 C.3    28  LEU28       0.0001
     88  CD2       13.8230   18.7100    7.8520 C.3    28  LEU28       0.0001
     89  N         14.6870   15.5020    2.0080 N.3    31  GLN31      -0.1231
     90  CA        15.5330   14.5260    2.7120 C.3    31  GLN31       0.1698
     91  C         14.8770   13.1600    2.9020 C.2    31  GLN31       0.2592
     92  O         15.5700   12.1490    3.0030 O.2    31  GLN31      -0.2718
     93  CB        16.0470   15.0760    4.0560 C.3    31  GLN31       0.0381
     94  CG        16.9590   16.3140    3.9150 C.3    31  GLN31       0.0905
     95  CD        17.0340   17.1670    5.1710 C.2    31  GLN31       0.2608
     96  OE1       17.2280   16.6710    6.2690 O.2    31  GLN31      -0.2717
     97  NE2       16.9080   18.4740    4.9990 N.am   31  GLN31      -0.0878
     98  N         13.5490   13.0920    2.8870 N.am   32  CYS32      -0.1970
     99  CA        12.8590   11.7810    3.0370 C.3    32  CYS32       0.1712
    100  C         13.1660   10.7550    1.9250 C.2    32  CYS32       0.2296
    101  O         13.1150    9.5560    2.1900 O.2    32  CYS32      -0.2864
    102  CB        11.3450   11.9280    3.1450 C.3    32  CYS32       0.0983
    103  SG        10.7690   13.2760    4.1800 S.3    32  CYS32      -0.0798
    104  N         15.8030   10.0550    0.4280 N.3    34  GLU34      -0.1231
    105  CA        17.0260    9.2790    0.6600 C.3    34  GLU34       0.1699
    106  C         16.7270    7.8320    0.9270 C.2    34  GLU34       0.2592
    107  O         17.4440    6.9580    0.4380 O.2    34  GLU34      -0.2718
    108  CB        17.7990    9.8200    1.8520 C.3    34  GLU34       0.0402
    109  CG        18.3940   11.1850    1.6010 C.3    34  GLU34       0.1161
    110  CD        19.1100   11.7150    2.8190 C.2    34  GLU34       0.3649
    111  OE1       19.7980   12.7500    2.6980 O.co2  34  GLU34      -0.2457
    112  OE2       18.9890   11.0900    3.9020 O.co2  34  GLU34      -0.2457
    113  N         15.6730    7.5900    1.7030 N.am   35  CYS35      -0.1956
    114  CA        15.2560    6.2500    2.0870 C.3    35  CYS35       0.1843
    115  C         13.9720    5.8060    1.4110 C.2    35  CYS35       0.2625
    116  O         13.8290    4.6450    1.0320 O.2    35  CYS35      -0.2714
    117  CB        15.1250    6.1630    3.6010 C.3    35  CYS35       0.0997
    118  SG        16.6720    6.5100    4.4150 S.3    35  CYS35      -0.0797
    119  N         13.0300    6.7310    1.2730 N.am   36  HIS36      -0.1973
    120  CA        11.7310    6.4300    0.7320 C.3    36  HIS36       0.1656
    121  C         11.7130    6.6780   -0.7650 C.2    36  HIS36       0.2291
    122  O         11.4870    7.7820   -1.2070 O.2    36  HIS36      -0.2864
    123  CB        10.6720    7.2700    1.4480 C.3    36  HIS36       0.0771
    124  CG        10.4800    6.9050    2.8930 C.ar   36  HIS36       0.0820
    125  ND1        9.7160    5.8270    3.2800 N.ar   36  HIS36      -0.2267
    126  CD2       10.9140    7.4900    4.0370 C.ar   36  HIS36       0.1154
    127  CE1        9.6870    5.7560    4.6010 C.ar   36  HIS36       0.1986
    128  NE2       10.4160    6.7460    5.0860 N.ar   36  HIS36      -0.2212
    129  N         13.0830    2.0600    0.7170 N.3    43  ILE43      -0.1245
    130  CA        11.7750    1.6480    1.2050 C.3    43  ILE43       0.1561
    131  C         10.7200    2.0360    0.1910 C.2    43  ILE43       0.2260
    132  O         10.3710    3.2190    0.0460 O.2    43  ILE43      -0.2867
    133  CB        11.4660    2.2610    2.5820 C.3    43  ILE43       0.0252
    134  CG1       12.5930    1.9220    3.5530 C.3    43  ILE43       0.0019
    135  CG2       10.1090    1.7420    3.1010 C.3    43  ILE43       0.0019
    136  CD1       12.4840    2.5860    4.8670 C.3    43  ILE43       0.0001
    137  N          5.7330   15.0780    1.5910 N.3    60  CYS60      -0.1221
    138  CA         5.5010   14.0070    2.5780 C.3    60  CYS60       0.1808
    139  C          4.7490   14.5190    3.7960 C.2    60  CYS60       0.2601
    140  O          3.7850   13.8850    4.2790 O.2    60  CYS60      -0.2717
    141  CB         6.8130   13.4170    3.0650 C.3    60  CYS60       0.0970
    142  SG         7.9720   12.9490    1.7800 S.3    60  CYS60      -0.0800
    143  N          5.2250   15.6420    4.3200 N.am   61  LEU61      -0.1979
    144  CA         4.8160   16.1570    5.6120 C.3    61  LEU61       0.1596
    145  C          3.4670   16.7950    5.5660 C.2    61  LEU61       0.2287
    146  O          2.9300   17.1500    6.6020 O.2    61  LEU61      -0.2864
    147  CB         5.8770   17.0770    6.2220 C.3    61  LEU61       0.0297
    148  CG         7.1540   16.3080    6.6050 C.3    61  LEU61       0.0022
    149  CD1        8.2520   17.3240    6.9410 C.3    61  LEU61       0.0001
    150  CD2        6.9100   15.3210    7.7830 C.3    61  LEU61       0.0001
    151  N          1.6830   13.1550    5.9580 N.3    64  HIS64      -0.1241
    152  CA         2.2070   12.3910    7.0940 C.3    64  HIS64       0.1621
    153  C          2.7100   13.3790    8.1390 C.2    64  HIS64       0.2264
    154  O          3.8100   13.9250    8.0290 O.2    64  HIS64      -0.2867
    155  CB         3.3320   11.4150    6.6980 C.3    64  HIS64       0.0745
    156  CG         2.9510   10.4130    5.6660 C.ar   64  HIS64       0.0817
    157  ND1        2.1890    9.2810    5.9380 N.ar   64  HIS64      -0.2268
    158  CD2        3.2430   10.3700    4.3500 C.ar   64  HIS64       0.1154
    159  CE1        2.0560    8.5890    4.8170 C.ar   64  HIS64       0.1986
    160  NE2        2.6930    9.2210    3.8460 N.ar   64  HIS64      -0.2212
    161  N          4.0840   14.8980   11.6970 N.3    66  PHE66      -0.1241
    162  CA         4.8860   14.5080   12.8530 C.3    66  PHE66       0.1605
    163  C          3.9540   14.2260   14.0110 C.2    66  PHE66       0.2264
    164  O          2.9100   14.8680   14.1260 O.2    66  PHE66      -0.2867
    165  CB         5.7620   15.6720   13.2910 C.3    66  PHE66       0.0534
    166  CG         6.8970   15.9520   12.3690 C.ar   66  PHE66      -0.0203
    167  CD1        6.9180   17.1190   11.6290 C.ar   66  PHE66      -0.0042
    168  CD2        7.9530   15.0440   12.2440 C.ar   66  PHE66      -0.0042
    169  CE1        7.9430   17.4090   10.7790 C.ar   66  PHE66      -0.0003
    170  CE2        9.0100   15.3180   11.4050 C.ar   66  PHE66      -0.0003
    171  CZ         9.0090   16.4960   10.6410 C.ar   66  PHE66      -0.0000
@<TRIPOS>BOND
     1   122   121    2
     2   121   120    1
     3   132   131    2
     4   131   130    1
     5   104   105    1
     6   107   106    2
     7   105   106    1
     8   105   108    1
     9   129   130    1
    10   120   119    1
    11   120   123    1
    12   106   113   am
    13   116   115    2
    14   130   133    1
    15   119   115   am
    16   115   114    1
    17   123   124    1
    18   137   138    1
    19   109   108    1
    20   109   110    1
    21   113   114    1
    22   142   141    1
    23   100   101    2
    24   100    99    1
    25    89    90    1
    26   114   117    1
    27   138   141    1
    28   138   139    1
    29   133   135    1
    30   133   134    1
    31   111   110   ar
    32    90    91    1
    33    90    93    1
    34   110   112   ar
    35    98    91   am
    36    98    99    1
    37   124   125   ar
    38   124   126   ar
    39    91    92    2
    40    99   102    1
    41   102   103    1
    42   125   127   ar
    43   134   136    1
    44   117   118    1
    45   139   140    2
    46   139   143   am
    47   160   158   ar
    48   160   159   ar
    49    94    93    1
    50    94    95    1
    51   126   128   ar
    52    84    83    2
    53    83    82    1
    54   143   144    1
    55   158   156   ar
    56    81    82    1
    57   127   128   ar
    58   159   157   ar
    59    97    95   am
    60    82    85    1
    61    95    96    2
    62   145   144    1
    63   145   146    2
    64   144   147    1
    65   156   157   ar
    66   156   155    1
    67   151   152    1
    68   147   148    1
    69    85    86    1
    70    69    67    1
    71   148   149    1
    72   148   150    1
    73   155   152    1
    74   152   153    1
    75    79    80   ar
    76    79    77   ar
    77    86    88    1
    78    86    87    1
    79    80    78   ar
    80    67    68    1
    81    67    66    2
    82   154   153    2
    83     1     2    1
    84    77    75   ar
    85    78    76   ar
    86    66    65    1
    87     4     3    2
    88     7     6    1
    89     7     8    1
    90    58    56   ar
    91    58    57   ar
    92     5     6    1
    93     5     2    1
    94    75    76   ar
    95    75    74    1
    96     2     3    1
    97     9     8    1
    98    56    54   ar
    99     3    10   am
   100    25    23    1
   101    57    55   ar
   102    65    64    1
   103    74    71    1
   104    48    46   am
   105    44    43    2
   106    46    47    2
   107    46    45    1
   108   171   169   ar
   109   171   170   ar
   110    24    23    1
   111    64    63    1
   112   169   167   ar
   113    54    55   ar
   114    54    53    1
   115    10    11    1
   116    23    20    1
   117    45    42    1
   118    13    12    2
   119    20    19    1
   120    20    21    1
   121    32    31    1
   122    32    26    1
   123    12    19   am
   124    12    11    1
   125    71    70    1
   126    71    72    1
   127    11    14    1
   128    43    42    1
   129    43    49   am
   130   170   168   ar
   131   167   166   ar
   132    31    30    1
   133   161   162    1
   134    42    41    1
   135    70    61   am
   136    53    50    1
   137    50    49    1
   138    50    51    1
   139    73    72    2
   140    63    60    1
   141    26    21   am
   142    26    27    1
   143   168   166   ar
   144    21    22    2
   145    61    62    2
   146    61    60    1
   147   166   165    1
   148    14    15    1
   149    15    16    1
   150    52    51    2
   151   162   165    1
   152   162   163    1
   153    30    27    1
   154    60    59    1
   155    27    28    1
   156    40    38   ar
   157    18    17    1
   158    39    38   ar
   159    29    28    2
   160   163   164    2
   161    38    37    1
   162    16    17    1
   163    36    35    2
   164    37    34    1
   165    35    34    1
   166    33    34    1
