@<TRIPOS>MOLECULE
tmp/2d03B00.pdb
 86 85 0 0 0
SMALL
GASTEIGER

@<TRIPOS>ATOM
      1  N         27.6510   17.4680  111.4980 N.3    30  SER30      -0.1202
      2  CA        26.2350   17.2450  111.7010 C.3    30  SER30       0.2020
      3  C         25.4550   16.8600  110.4390 C.2    30  SER30       0.2619
      4  O         24.3970   16.2280  110.5280 O.2    30  SER30      -0.2717
      5  CB        25.5970   18.4810  112.3100 C.3    30  SER30       0.2103
      6  OG        25.9590   18.5950  113.6660 O.3    30  SER30      -0.2182
      7  N         25.9690   17.2320  109.2680 N.am   31  TYR31      -0.1961
      8  CA        25.2720   16.9370  108.0230 C.3    31  TYR31       0.1771
      9  C         26.1790   16.4110  106.9470 C.2    31  TYR31       0.2620
     10  O         27.2900   16.9130  106.7670 O.2    31  TYR31      -0.2715
     11  CB        24.6010   18.1920  107.4750 C.3    31  TYR31       0.0574
     12  CG        23.6050   18.8140  108.4120 C.ar   31  TYR31      -0.0198
     13  CD1       24.0000   19.7600  109.3620 C.ar   31  TYR31      -0.0009
     14  CD2       22.2680   18.4390  108.3730 C.ar   31  TYR31      -0.0009
     15  CE1       23.0810   20.3180  110.2520 C.ar   31  TYR31       0.0417
     16  CE2       21.3420   18.9910  109.2620 C.ar   31  TYR31       0.0417
     17  CZ        21.7590   19.9260  110.1930 C.ar   31  TYR31       0.1957
     18  OH        20.8360   20.4580  111.0540 O.3    31  TYR31      -0.2866
     19  N         25.7090   15.3960  106.2250 N.am   32  GLY32      -0.1954
     20  CA        26.5060   14.8850  105.1320 C.3    32  GLY32       0.1869
     21  C         26.4030   15.8620  103.9580 C.2    32  GLY32       0.2309
     22  O         25.5250   16.7290  103.9240 O.2    32  GLY32      -0.2863
     23  N         29.3410   11.6140  104.4680 N.3    51  TRP51      -0.1227
     24  CA        28.4720   11.6990  105.6270 C.3    51  TRP51       0.1737
     25  C         29.0450   12.4960  106.8020 C.2    51  TRP51       0.2596
     26  O         30.2420   12.7500  106.8560 O.2    51  TRP51      -0.2718
     27  CB        28.1170   10.2730  106.0510 C.3    51  TRP51       0.0564
     28  CG        27.4400    9.4560  104.9540 C.ar   51  TRP51       0.0003
     29  CD1       27.8820    8.2760  104.4230 C.ar   51  TRP51       0.0946
     30  CD2       26.1650    9.7210  104.3290 C.ar   51  TRP51       0.0152
     31  NE1       26.9660    7.7820  103.5220 N.ar   51  TRP51      -0.2442
     32  CE2       25.9030    8.6460  103.4440 C.ar   51  TRP51       0.0810
     33  CE3       25.2200   10.7570  104.4360 C.ar   51  TRP51       0.0012
     34  CZ2       24.7280    8.5760  102.6640 C.ar   51  TRP51       0.0191
     35  CZ3       24.0530   10.6830  103.6590 C.ar   51  TRP51       0.0001
     36  CH2       23.8220    9.5990  102.7870 C.ar   51  TRP51       0.0015
     37  N         28.1820   12.9270  107.7140 N.am   52  SER52      -0.1952
     38  CA        28.6360   13.6850  108.8890 C.3    52  SER52       0.1924
     39  C         29.7750   12.9170  109.5620 C.2    52  SER52       0.2314
     40  O         30.7990   13.4810  109.9080 O.2    52  SER52      -0.2863
     41  CB        27.4820   13.8620  109.8860 C.3    52  SER52       0.2116
     42  OG        26.9120   12.6030  110.2180 O.3    52  SER52      -0.2180
     43  N         30.2130    7.4870  100.2680 N.3    57  ASP57      -0.1239
     44  CA        29.4720    6.5730   99.4220 C.3    57  ASP57       0.1674
     45  C         29.6220    7.1650   98.0420 C.2    57  ASP57       0.2266
     46  O         29.6120    8.3840   97.8840 O.2    57  ASP57      -0.2867
     47  CB        28.0050    6.4880   99.8240 C.3    57  ASP57       0.1410
     48  CG        27.7650    5.4390  100.9050 C.2    57  ASP57       0.3668
     49  OD1       28.1780    4.2810  100.6990 O.co2  57  ASP57      -0.2456
     50  OD2       27.1650    5.7630  101.9540 O.co2  57  ASP57      -0.2456
     51  N         22.8870   17.0090  102.9860 N.3    97  ASN97      -0.1240
     52  CA        21.9710   15.9220  103.2440 C.3    97  ASN97       0.1653
     53  C         21.1530   16.3470  104.4630 C.2    97  ASN97       0.2266
     54  O         21.7240   16.6550  105.5050 O.2    97  ASN97      -0.2867
     55  CB        22.6980   14.6570  103.5990 C.3    97  ASN97       0.1155
     56  CG        21.7500   13.5020  103.7860 C.2    97  ASN97       0.2627
     57  OD1       21.1890   12.9930  102.8080 O.2    97  ASN97      -0.2716
     58  ND2       21.5500   13.0810  105.0430 N.am   97  ASN97      -0.0877
     59  N         19.8380   15.3090  107.0910 N.3    99  GLY99      -0.1210
     60  CA        19.8030   14.2580  108.0810 C.3    99  GLY99       0.1956
     61  C         19.0690   12.9920  107.7080 C.2    99  GLY99       0.2611
     62  O         19.2780   12.4280  106.6310 O.2    99  GLY99      -0.2717
     63  N         18.1920   12.5640  108.6090 N.am  100  TYR100     -0.1976
     64  CA        17.4340   11.3470  108.4430 C.3   100  TYR100      0.1639
     65  C         16.4000   11.2990  107.3160 C.2   100  TYR100      0.2290
     66  O         15.7960   10.2550  107.0890 O.2   100  TYR100     -0.2864
     67  CB        16.7990   10.9910  109.7860 C.3   100  TYR100      0.0560
     68  CG        17.7990   10.4610  110.8130 C.ar  100  TYR100     -0.0198
     69  CD1       17.5470   10.5570  112.1840 C.ar  100  TYR100     -0.0009
     70  CD2       18.9580    9.7890  110.4090 C.ar  100  TYR100     -0.0009
     71  CE1       18.4200    9.9860  113.1280 C.ar  100  TYR100      0.0417
     72  CE2       19.8350    9.2160  111.3440 C.ar  100  TYR100      0.0417
     73  CZ        19.5580    9.3130  112.7000 C.ar  100  TYR100      0.1957
     74  OH        20.3970    8.7030  113.6150 O.3   100  TYR100     -0.2866
     75  N         17.2940   11.9830  104.2530 N.3   102  TYR102     -0.1241
     76  CA        18.1490   11.5480  103.1450 C.3   102  TYR102      0.1605
     77  C         17.7920   12.2090  101.8070 C.2   102  TYR102      0.2264
     78  O         17.8340   11.5920  100.7470 O.2   102  TYR102     -0.2867
     79  CB        18.1510   10.0090  103.0370 C.3   102  TYR102      0.0534
     80  CG        18.8670    9.3810  104.2210 C.ar  102  TYR102     -0.0201
     81  CD1       18.1550    8.9820  105.3490 C.ar  102  TYR102     -0.0009
     82  CD2       20.2680    9.3380  104.2780 C.ar  102  TYR102     -0.0009
     83  CE1       18.8020    8.5700  106.5080 C.ar  102  TYR102      0.0417
     84  CE2       20.9390    8.9340  105.4400 C.ar  102  TYR102      0.0417
     85  CZ        20.1850    8.5530  106.5550 C.ar  102  TYR102      0.1957
     86  OH        20.7820    8.1970  107.7350 O.3   102  TYR102     -0.2866
@<TRIPOS>BOND
     1    46    45    2
     2    45    44    1
     3    44    47    1
     4    44    43    1
     5    47    48    1
     6    49    48   ar
     7    78    77    2
     8    48    50   ar
     9    77    76    1
    10    34    36   ar
    11    34    32   ar
    12    36    35   ar
    13    57    56    2
    14    51    52    1
    15    79    76    1
    16    79    80    1
    17    76    75    1
    18    52    55    1
    19    52    53    1
    20    32    31   ar
    21    32    30   ar
    22    31    29   ar
    23    55    56    1
    24    35    33   ar
    25    56    58   am
    26    22    21    2
    27    21    20    1
    28    80    82   ar
    29    80    81   ar
    30    82    84   ar
    31    30    33   ar
    32    30    28   ar
    33    29    28   ar
    34    53    54    2
    35    23    24    1
    36    28    27    1
    37    20    19    1
    38    81    83   ar
    39    84    85   ar
    40    24    27    1
    41    24    25    1
    42    19     9   am
    43    83    85   ar
    44    85    86    1
    45    62    61    2
    46    10     9    2
    47    25    26    2
    48    25    37   am
    49     9     8    1
    50    66    65    2
    51    59    60    1
    52    65    64    1
    53    11     8    1
    54    11    12    1
    55    61    60    1
    56    61    63   am
    57    37    38    1
    58     8     7    1
    59    14    12   ar
    60    14    16   ar
    61    12    13   ar
    62    64    63    1
    63    64    67    1
    64    38    39    1
    65    38    41    1
    66    16    17   ar
    67     7     3   am
    68    13    15   ar
    69    39    40    2
    70    67    68    1
    71    41    42    1
    72    17    15   ar
    73    17    18    1
    74    70    68   ar
    75    70    72   ar
    76     3     4    2
    77     3     2    1
    78    68    69   ar
    79    72    73   ar
    80     1     2    1
    81     2     5    1
    82    69    71   ar
    83     5     6    1
    84    73    71   ar
    85    73    74    1
