@<TRIPOS>MOLECULE
tmp/2d06B01.pdb
 220 213 0 0 0
SMALL
GASTEIGER

@<TRIPOS>ATOM
      1  N        172.8920  -54.6760   28.6190 N.3    14  ILE14      -0.1245
      2  CA       172.4440  -53.3060   28.6500 C.3    14  ILE14       0.1561
      3  C        173.7440  -52.5360   28.9010 C.2    14  ILE14       0.2260
      4  O        174.6080  -52.9790   29.6740 O.2    14  ILE14      -0.2867
      5  CB       171.4370  -53.0970   29.7990 C.3    14  ILE14       0.0252
      6  CG1      170.1400  -53.8030   29.4410 C.3    14  ILE14       0.0019
      7  CG2      171.1920  -51.5990   30.0660 C.3    14  ILE14       0.0019
      8  CD1      169.0770  -53.6370   30.4960 C.3    14  ILE14       0.0001
      9  N        174.8860  -52.0880   32.4650 N.3    17  PHE17      -0.1241
     10  CA       175.2600  -53.3870   33.0170 C.3    17  PHE17       0.1605
     11  C        176.6100  -53.8070   32.4770 C.2    17  PHE17       0.2264
     12  O        177.3890  -54.4070   33.1880 O.2    17  PHE17      -0.2867
     13  CB       174.2080  -54.4500   32.6860 C.3    17  PHE17       0.0534
     14  CG       172.9110  -54.2470   33.3990 C.ar   17  PHE17      -0.0203
     15  CD1      172.5200  -52.9670   33.8060 C.ar   17  PHE17      -0.0042
     16  CD2      172.0820  -55.3330   33.6760 C.ar   17  PHE17      -0.0042
     17  CE1      171.3290  -52.7750   34.4780 C.ar   17  PHE17      -0.0003
     18  CE2      170.8840  -55.1610   34.3480 C.ar   17  PHE17      -0.0003
     19  CZ       170.5020  -53.8720   34.7550 C.ar   17  PHE17      -0.0000
     20  N        166.1910  -63.4930   32.9850 N.3    40  PRO40      -0.2102
     21  CA       165.1640  -62.4600   33.1660 C.3    40  PRO40       0.1504
     22  C        163.7040  -62.9060   33.0320 C.2    40  PRO40       0.2575
     23  O        163.3650  -63.5730   32.0470 O.2    40  PRO40      -0.2718
     24  CB       165.5320  -61.4260   32.1020 C.3    40  PRO40       0.0282
     25  CG       166.9770  -61.5830   31.9510 C.3    40  PRO40       0.0208
     26  CD       167.1270  -63.0880   31.9280 C.3    40  PRO40       0.0893
     27  N        162.8750  -62.5390   34.0170 N.am   41  LYS41      -0.1980
     28  CA       161.4390  -62.8370   34.0460 C.3    41  LYS41       0.1596
     29  C        161.0880  -64.3180   34.3850 C.2    41  LYS41       0.2287
     30  O        160.1100  -64.8660   33.8890 O.2    41  LYS41      -0.2864
     31  CB       160.7990  -62.4290   32.6990 C.3    41  LYS41       0.0298
     32  CG       161.3560  -61.1200   32.0060 C.3    41  LYS41       0.0038
     33  CD       161.3660  -59.8570   32.9250 C.3    41  LYS41       0.0206
     34  CE       160.0830  -59.7610   33.7530 C.3    41  LYS41       0.1093
     35  NZ       160.1490  -58.6880   34.7530 N.3    41  LYS41      -0.1314
     36  N        162.5650  -64.2320   39.5610 N.3    44  THR44      -0.1203
     37  CA       163.5620  -63.6140   40.3710 C.3    44  THR44       0.1994
     38  C        162.9840  -62.8980   41.6120 C.2    44  THR44       0.2618
     39  O        163.3120  -63.2700   42.7510 O.2    44  THR44      -0.2717
     40  CB       164.3670  -62.6050   39.5530 C.3    44  THR44       0.1784
     41  OG1      164.5510  -63.1400   38.2470 O.3    44  THR44      -0.2211
     42  CG2      165.7200  -62.3600   40.2020 C.3    44  THR44       0.0376
     43  N        162.1410  -61.8890   41.3540 N.am   45  THR45      -0.1952
     44  CA       161.5570  -61.1010   42.4060 C.3    45  THR45       0.1897
     45  C        160.7250  -61.9410   43.3680 C.2    45  THR45       0.2313
     46  O        160.7150  -61.7100   44.5640 O.2    45  THR45      -0.2863
     47  CB       160.7290  -59.9280   41.8740 C.3    45  THR45       0.1794
     48  OG1      161.5590  -59.0960   41.0770 O.3    45  THR45      -0.2208
     49  CG2      160.1620  -59.0920   43.0090 C.3    45  THR45       0.0378
     50  N        165.0840  -54.9360   45.4930 N.3    69  PHE69      -0.1241
     51  CA       166.3920  -54.8090   44.8610 C.3    69  PHE69       0.1605
     52  C        167.4120  -54.2280   45.8350 C.2    69  PHE69       0.2264
     53  O        168.6240  -54.3870   45.6510 O.2    69  PHE69      -0.2867
     54  CB       166.3250  -53.9420   43.5940 C.3    69  PHE69       0.0534
     55  CG       165.8670  -52.5340   43.8360 C.ar   69  PHE69      -0.0203
     56  CD1      164.5120  -52.2410   43.9900 C.ar   69  PHE69      -0.0042
     57  CD2      166.7920  -51.4970   43.9210 C.ar   69  PHE69      -0.0042
     58  CE1      164.0800  -50.9330   44.2270 C.ar   69  PHE69      -0.0003
     59  CE2      166.3740  -50.1840   44.1580 C.ar   69  PHE69      -0.0003
     60  CZ       165.0120  -49.9030   44.3120 C.ar   69  PHE69      -0.0000
     61  N        171.5750  -56.3920   43.4140 N.3    74  PHE74      -0.1241
     62  CA       171.5860  -56.8650   42.0410 C.3    74  PHE74       0.1605
     63  C        173.0250  -56.6420   41.5690 C.2    74  PHE74       0.2264
     64  O        173.4260  -55.5180   41.2350 O.2    74  PHE74      -0.2867
     65  CB       170.6080  -56.0410   41.2140 C.3    74  PHE74       0.0534
     66  CG       170.3820  -56.5670   39.8440 C.ar   74  PHE74      -0.0203
     67  CD1      171.2290  -57.5160   39.3060 C.ar   74  PHE74      -0.0042
     68  CD2      169.3620  -56.0710   39.0660 C.ar   74  PHE74      -0.0042
     69  CE1      171.0700  -57.9590   38.0090 C.ar   74  PHE74      -0.0003
     70  CE2      169.1970  -56.5100   37.7690 C.ar   74  PHE74      -0.0003
     71  CZ       170.0530  -57.4540   37.2400 C.ar   74  PHE74      -0.0000
     72  N        173.9970  -54.7930   38.4830 N.3    77  PHE77      -0.1241
     73  CA       173.1790  -53.6050   38.3840 C.3    77  PHE77       0.1605
     74  C        173.9350  -52.3050   38.4270 C.2    77  PHE77       0.2264
     75  O        174.9370  -52.1620   39.1290 O.2    77  PHE77      -0.2867
     76  CB       172.1320  -53.5760   39.4830 C.3    77  PHE77       0.0534
     77  CG       171.2570  -52.3690   39.4300 C.ar   77  PHE77      -0.0203
     78  CD1      170.1750  -52.3170   38.5580 C.ar   77  PHE77      -0.0042
     79  CD2      171.5280  -51.2670   40.2320 C.ar   77  PHE77      -0.0042
     80  CE1      169.3740  -51.1880   38.4840 C.ar   77  PHE77      -0.0003
     81  CE2      170.7350  -50.1310   40.1690 C.ar   77  PHE77      -0.0003
     82  CZ       169.6530  -50.0920   39.2910 C.ar   77  PHE77      -0.0000
     83  N        173.0220  -47.8700   37.0070 N.3    79  ALA79      -0.1245
     84  CA       172.2160  -46.9040   36.2810 C.3    79  ALA79       0.1562
     85  C        172.5220  -45.5390   36.8950 C.2    79  ALA79       0.2260
     86  O        172.7370  -45.4330   38.1090 O.2    79  ALA79      -0.2867
     87  CB       170.7330  -47.2410   36.4200 C.3    79  ALA79       0.0290
     88  N        171.3560  -43.6920   40.5740 N.3    82  ILE82      -0.1245
     89  CA       171.0420  -44.7880   41.4710 C.3    82  ILE82       0.1561
     90  C        172.3500  -45.4730   41.8240 C.2    82  ILE82       0.2260
     91  O        173.3140  -45.4180   41.0530 O.2    82  ILE82      -0.2867
     92  CB       170.0720  -45.7810   40.8060 C.3    82  ILE82       0.0252
     93  CG1      168.6850  -45.1490   40.7190 C.3    82  ILE82       0.0019
     94  CG2      169.9870  -47.0640   41.6040 C.3    82  ILE82       0.0019
     95  CD1      167.6670  -46.0050   40.0120 C.3    82  ILE82       0.0001
     96  N        171.6610  -61.3420   43.8940 N.3    99  LYS99      -0.1245
     97  CA       170.8860  -61.6330   42.6820 C.3    99  LYS99       0.1561
     98  C        171.6920  -61.3450   41.3960 C.2    99  LYS99       0.2260
     99  O        172.4420  -60.3510   41.3170 O.2    99  LYS99      -0.2867
    100  CB       169.6070  -60.7900   42.6420 C.3    99  LYS99       0.0271
    101  CG       168.8760  -60.8840   41.3300 C.3    99  LYS99       0.0035
    102  CD       168.1100  -59.6130   40.9880 C.3    99  LYS99       0.0206
    103  CE       167.7560  -59.5820   39.4880 C.3    99  LYS99       0.1093
    104  NZ       166.8500  -58.4650   39.0750 N.3    99  LYS99      -0.1314
    105  N        171.6450  -62.3050   36.7140 N.3   101  HIS101     -0.1241
    106  CA       171.0570  -62.8960   35.5060 C.3   101  HIS101      0.1621
    107  C        172.1660  -63.1640   34.5130 C.2   101  HIS101      0.2264
    108  O        171.8940  -63.5070   33.3620 O.2   101  HIS101     -0.2867
    109  CB       170.0610  -61.9710   34.8030 C.3   101  HIS101      0.0745
    110  CG       168.8790  -61.6040   35.6310 C.ar  101  HIS101      0.0817
    111  ND1      168.0450  -62.5430   36.2020 N.ar  101  HIS101     -0.2268
    112  CD2      168.3910  -60.3910   35.9860 C.ar  101  HIS101      0.1154
    113  CE1      167.0950  -61.9220   36.8800 C.ar  101  HIS101      0.1986
    114  NE2      167.2820  -60.6160   36.7630 N.ar  101  HIS101     -0.2212
    115  N        158.8530  -61.1630   28.9770 N.3   132  TYR132     -0.1241
    116  CA       159.9600  -60.3160   28.5590 C.3   132  TYR132      0.1605
    117  C        159.5550  -59.2500   27.5430 C.2   132  TYR132      0.2264
    118  O        160.0520  -58.1340   27.5870 O.2   132  TYR132     -0.2867
    119  CB       161.0670  -61.1660   27.9650 C.3   132  TYR132      0.0534
    120  CG       162.4790  -60.6760   28.2480 C.ar  132  TYR132     -0.0201
    121  CD1      162.7200  -59.3970   28.7560 C.ar  132  TYR132     -0.0009
    122  CD2      163.5760  -61.5100   28.0160 C.ar  132  TYR132     -0.0009
    123  CE1      164.0320  -58.9700   29.0270 C.ar  132  TYR132      0.0417
    124  CE2      164.8720  -61.0950   28.2810 C.ar  132  TYR132      0.0417
    125  CZ       165.0930  -59.8280   28.7860 C.ar  132  TYR132      0.1957
    126  OH       166.3790  -59.4490   29.0610 O.3   132  TYR132     -0.2866
    127  N        157.9940  -56.5090   29.4540 N.3   135  PHE135     -0.1241
    128  CA       158.9990  -55.8910   30.2810 C.3   135  PHE135      0.1605
    129  C        159.8410  -54.8930   29.4790 C.2   135  PHE135      0.2264
    130  O        160.2820  -53.8670   30.0100 O.2   135  PHE135     -0.2867
    131  CB       159.8970  -56.9720   30.8730 C.3   135  PHE135      0.0534
    132  CG       160.8130  -56.4740   31.9450 C.ar  135  PHE135     -0.0203
    133  CD1      160.2950  -55.8770   33.0920 C.ar  135  PHE135     -0.0042
    134  CD2      162.1940  -56.5650   31.7960 C.ar  135  PHE135     -0.0042
    135  CE1      161.1330  -55.3700   34.0720 C.ar  135  PHE135     -0.0003
    136  CE2      163.0380  -56.0590   32.7740 C.ar  135  PHE135     -0.0003
    137  CZ       162.5040  -55.4570   33.9160 C.ar  135  PHE135     -0.0000
    138  N        160.2060  -51.0510   30.8950 N.3   139  ALA139     -0.1245
    139  CA       161.5630  -50.7730   31.3440 C.3   139  ALA139      0.1562
    140  C        162.2580  -50.0830   30.1810 C.2   139  ALA139      0.2260
    141  O        162.7570  -50.7410   29.2630 O.2   139  ALA139     -0.2867
    142  CB       162.2780  -52.0800   31.7040 C.3   139  ALA139      0.0290
    143  N        165.1800  -48.7540   29.5790 N.3   141  VAL141     -0.1231
    144  CA       166.6020  -48.8810   29.2180 C.3   141  VAL141      0.1692
    145  C        166.8670  -49.9390   28.1590 C.2   141  VAL141      0.2592
    146  O        168.0000  -50.0710   27.6980 O.2   141  VAL141     -0.2718
    147  CB       167.5200  -49.2230   30.4160 C.3   141  VAL141      0.0266
    148  CG1      167.4300  -48.1460   31.4640 C.3   141  VAL141      0.0020
    149  CG2      167.1610  -50.5790   30.9770 C.3   141  VAL141      0.0020
    150  N        165.8460  -50.7080   27.7860 N.am  142  HIS142     -0.1976
    151  CA       166.0370  -51.7210   26.7540 C.3   142  HIS142      0.1656
    152  C        165.8080  -51.0910   25.3950 C.2   142  HIS142      0.2291
    153  O        165.0490  -50.1350   25.2550 O.2   142  HIS142     -0.2864
    154  CB       165.0470  -52.8750   26.8890 C.3   142  HIS142      0.0771
    155  CG       165.0580  -53.5420   28.2230 C.ar  142  HIS142      0.0820
    156  ND1      164.6030  -52.9240   29.3660 N.ar  142  HIS142     -0.2267
    157  CD2      165.4510  -54.7840   28.5950 C.ar  142  HIS142      0.1154
    158  CE1      164.7150  -53.7570   30.3860 C.ar  142  HIS142      0.1986
    159  NE2      165.2280  -54.8920   29.9450 N.ar  142  HIS142     -0.2212
    160  N        170.7870  -60.0370   27.8960 N.3   162  TYR162     -0.1241
    161  CA       171.2630  -61.2160   28.6430 C.3   162  TYR162      0.1605
    162  C        171.3860  -62.4850   27.7810 C.2   162  TYR162      0.2264
    163  O        171.6590  -63.5760   28.2890 O.2   162  TYR162     -0.2867
    164  CB       170.3950  -61.4860   29.8820 C.3   162  TYR162      0.0534
    165  CG       170.7810  -60.6820   31.1120 C.ar  162  TYR162     -0.0201
    166  CD1      171.9800  -60.9270   31.7620 C.ar  162  TYR162     -0.0009
    167  CD2      169.9690  -59.6220   31.5850 C.ar  162  TYR162     -0.0009
    168  CE1      172.3910  -60.1390   32.8600 C.ar  162  TYR162      0.0417
    169  CE2      170.3620  -58.8380   32.6620 C.ar  162  TYR162      0.0417
    170  CZ       171.5610  -59.0900   33.2970 C.ar  162  TYR162      0.1957
    171  OH       171.8280  -58.2560   34.3710 O.3   162  TYR162     -0.2866
    172  N        158.3090  -52.9250   42.5310 N.3   233  TYR233     -0.1241
    173  CA       159.1760  -51.9200   41.8510 C.3   233  TYR233      0.1605
    174  C        158.4690  -50.6250   41.4580 C.2   233  TYR233      0.2264
    175  O        158.8370  -50.0170   40.4600 O.2   233  TYR233     -0.2867
    176  CB       159.8050  -52.5400   40.5800 C.3   233  TYR233      0.0534
    177  CG       160.8810  -53.5750   40.8260 C.ar  233  TYR233     -0.0201
    178  CD1      160.5630  -54.8830   41.2180 C.ar  233  TYR233     -0.0009
    179  CD2      162.2230  -53.2600   40.6080 C.ar  233  TYR233     -0.0009
    180  CE1      161.5660  -55.8620   41.3760 C.ar  233  TYR233      0.0417
    181  CE2      163.2320  -54.2230   40.7660 C.ar  233  TYR233      0.0417
    182  CZ       162.8950  -55.5240   41.1490 C.ar  233  TYR233      0.1957
    183  OH       163.8710  -56.4850   41.3180 O.3   233  TYR233     -0.2866
    184  N        160.7470  -46.9210   42.0300 N.3   236  VAL236     -0.1245
    185  CA       161.6180  -46.4880   40.9420 C.3   236  VAL236      0.1561
    186  C        161.0250  -45.3780   40.0910 C.2   236  VAL236      0.2260
    187  O        159.8290  -45.3800   39.7950 O.2   236  VAL236     -0.2867
    188  CB       161.9810  -47.6780   40.0580 C.3   236  VAL236      0.0252
    189  CG1      162.8840  -47.2690   38.8990 C.3   236  VAL236      0.0019
    190  CG2      162.7290  -48.7080   40.9080 C.3   236  VAL236      0.0019
    191  N        162.8400  -44.7380   34.5450 N.3   240  PHE240     -0.1227
    192  CA       163.3590  -46.0920   34.3340 C.3   240  PHE240      0.1736
    193  C        162.2530  -47.1310   34.1020 C.2   240  PHE240      0.2595
    194  O        162.3250  -47.9020   33.1470 O.2   240  PHE240     -0.2718
    195  CB       164.2390  -46.5020   35.5180 C.3   240  PHE240      0.0547
    196  CG       165.5780  -45.8200   35.5370 C.ar  240  PHE240     -0.0202
    197  CD1      166.5010  -46.0490   34.5230 C.ar  240  PHE240     -0.0042
    198  CD2      165.9160  -44.9550   36.5710 C.ar  240  PHE240     -0.0042
    199  CE1      167.7430  -45.4260   34.5370 C.ar  240  PHE240     -0.0003
    200  CE2      167.1540  -44.3270   36.5940 C.ar  240  PHE240     -0.0003
    201  CZ       168.0710  -44.5630   35.5760 C.ar  240  PHE240     -0.0000
    202  N        161.2430  -47.1560   34.9700 N.am  241  MET241     -0.1979
    203  CA       160.1210  -48.0880   34.8310 C.3   241  MET241      0.1605
    204  C        158.7970  -47.3330   34.8730 C.2   241  MET241      0.2287
    205  O        158.4710  -46.6810   35.8620 O.2   241  MET241     -0.2864
    206  CB       160.1410  -49.1480   35.9420 C.3   241  MET241      0.0413
    207  CG       161.2310  -50.1930   35.7720 C.3   241  MET241      0.0598
    208  SD       161.4850  -51.2560   37.2110 S.3   241  MET241     -0.1393
    209  CE       160.7930  -52.7910   36.6380 C.3   241  MET241      0.0692
    210  N        155.1730  -54.0920   36.5080 N.3   248  PHE248     -0.1241
    211  CA       156.1900  -55.1160   36.7210 C.3   248  PHE248      0.1605
    212  C        155.4780  -56.4200   37.0820 C.2   248  PHE248      0.2264
    213  O        155.8370  -57.4980   36.5980 O.2   248  PHE248     -0.2867
    214  CB       157.1360  -54.7260   37.8560 C.3   248  PHE248      0.0534
    215  CG       158.2620  -55.6840   38.0320 C.ar  248  PHE248     -0.0203
    216  CD1      159.3850  -55.6120   37.2060 C.ar  248  PHE248     -0.0042
    217  CD2      158.1690  -56.7220   38.9550 C.ar  248  PHE248     -0.0042
    218  CE1      160.4040  -56.5670   37.2930 C.ar  248  PHE248     -0.0003
    219  CE2      159.1820  -57.6890   39.0510 C.ar  248  PHE248     -0.0003
    220  CZ       160.3000  -57.6090   38.2160 C.ar  248  PHE248     -0.0000
@<TRIPOS>BOND
     1   153   152    2
     2   152   151    1
     3   151   154    1
     4   151   150    1
     5   154   155    1
     6   117   118    2
     7   117   116    1
     8   146   145    2
     9   162   163    2
    10   162   161    1
    11   150   145   am
    12   160   161    1
    13   119   120    1
    14   119   116    1
    15   122   120   ar
    16   122   124   ar
    17   145   144    1
    18   155   157   ar
    19   155   156   ar
    20   120   121   ar
    21   124   125   ar
    22   116   115    1
    23   157   159   ar
    24     1     2    1
    25   161   164    1
    26     2     3    1
    27     2     5    1
    28   121   123   ar
    29   125   123   ar
    30   125   126    1
    31     3     4    2
    32   144   143    1
    33   144   147    1
    34   141   140    2
    35   156   158   ar
    36     6     5    1
    37     6     8    1
    38   127   128    1
    39   129   130    2
    40   129   128    1
    41     5     7    1
    42   164   165    1
    43   159   158   ar
    44   140   139    1
    45   128   131    1
    46   147   149    1
    47   147   148    1
    48   131   132    1
    49   138   139    1
    50   165   167   ar
    51   165   166   ar
    52   139   142    1
    53   167   169   ar
    54   166   168   ar
    55   134   132   ar
    56   134   136   ar
    57    26    25    1
    58    26    20    1
    59   132   133   ar
    60    25    24    1
    61    32    31    1
    62    32    33    1
    63    23    22    2
    64    24    21    1
    65     9    10    1
    66    11    10    1
    67    11    12    2
    68   169   170   ar
    69    13    10    1
    70    13    14    1
    71    31    28    1
    72   136   137   ar
    73   168   170   ar
    74    33    34    1
    75    20    21    1
    76    22    21    1
    77    22    27   am
    78   133   135   ar
    79   194   193    2
    80   170   171    1
    81   108   107    2
    82    14    16   ar
    83    14    15   ar
    84    16    18   ar
    85    34    35    1
    86    15    17   ar
    87    30    29    2
    88   137   135   ar
    89    27    28    1
    90    28    29    1
    91   193   192    1
    92   193   202   am
    93   192   191    1
    94   192   195    1
    95    18    19   ar
    96    17    19   ar
    97   107   106    1
    98   197   199   ar
    99   197   196   ar
   100   199   201   ar
   101   109   106    1
   102   109   110    1
   103   203   204    1
   104   203   202    1
   105   203   206    1
   106   204   205    2
   107   106   105    1
   108   195   196    1
   109   196   198   ar
   110   201   200   ar
   111   110   112   ar
   112   110   111   ar
   113   207   206    1
   114   207   208    1
   115   112   114   ar
   116   111   113   ar
   117    84    87    1
   118    84    85    1
   119    84    83    1
   120   210   211    1
   121   198   200   ar
   122   213   212    2
   123   209   208    1
   124   211   212    1
   125   211   214    1
   126   114   113   ar
   127    85    86    2
   128   216   218   ar
   129   216   215   ar
   130    71    70   ar
   131    71    69   ar
   132   218   220   ar
   133    70    68   ar
   134   214   215    1
   135    69    67   ar
   136   215   217   ar
   137   220   219   ar
   138    41    40    1
   139    73    74    1
   140    73    72    1
   141    73    76    1
   142    74    75    2
   143    80    78   ar
   144    80    82   ar
   145    78    77   ar
   146   189   188    1
   147   217   219   ar
   148    68    66   ar
   149   104   103    1
   150    82    81   ar
   151    67    66   ar
   152    77    76    1
   153    77    79   ar
   154   103   102    1
   155    40    42    1
   156    40    37    1
   157    36    37    1
   158   187   186    2
   159    66    65    1
   160    95    93    1
   161   188   190    1
   162   188   185    1
   163   186   185    1
   164    81    79   ar
   165    37    38    1
   166   175   174    2
   167    88    89    1
   168   176   177    1
   169   176   173    1
   170   179   181   ar
   171   179   177   ar
   172    93    92    1
   173   181   182   ar
   174    92    89    1
   175    92    94    1
   176   177   178   ar
   177   185   184    1
   178   102   101    1
   179    91    90    2
   180    48    47    1
   181   182   183    1
   182   182   180   ar
   183    65    62    1
   184   178   180   ar
   185    64    63    2
   186    99    98    2
   187   101   100    1
   188    43    38   am
   189    43    44    1
   190    98    97    1
   191   174   173    1
   192    89    90    1
   193    63    62    1
   194    38    39    2
   195   173   172    1
   196    47    44    1
   197    47    49    1
   198    62    61    1
   199    44    45    1
   200   100    97    1
   201    97    96    1
   202    45    46    2
   203    54    55    1
   204    54    51    1
   205    55    57   ar
   206    55    56   ar
   207    57    59   ar
   208    56    58   ar
   209    59    60   ar
   210    58    60   ar
   211    51    50    1
   212    51    52    1
   213    53    52    2
