@<TRIPOS>MOLECULE
tmp/2d09A01.pdb
 114 108 0 0 0
SMALL
GASTEIGER

@<TRIPOS>ATOM
      1  N         40.9040   64.7520   66.5720 N.3    68  ARG68      -0.1245
      2  CA        41.1120   65.9380   65.7390 C.3    68  ARG68       0.1563
      3  C         39.7970   66.5600   65.2760 C.2    68  ARG68       0.2260
      4  O         39.6770   67.7770   65.1810 O.2    68  ARG68      -0.2867
      5  CB        41.9390   65.5720   64.5060 C.3    68  ARG68       0.0307
      6  CG        43.4430   65.7010   64.6960 C.3    68  ARG68       0.0489
      7  CD        43.8570   67.1530   64.8350 C.3    68  ARG68       0.2205
      8  NE        45.2840   67.2820   65.0860 N.pl3  68  ARG68      -0.0865
      9  CZ        46.2350   67.0350   64.1870 C.cat  68  ARG68       0.5346
     10  NH1       45.9130   66.6490   62.9500 N.pl3  68  ARG68       0.1354
     11  NH2       47.5090   67.1670   64.5320 N.pl3  68  ARG68       0.1354
     12  N         46.3600   69.2570   51.3680 N.3   235  LEU235     -0.1245
     13  CA        47.3310   69.1360   52.4450 C.3   235  LEU235      0.1561
     14  C         48.6400   68.5350   51.9260 C.2   235  LEU235      0.2260
     15  O         49.7230   68.8730   52.4020 O.2   235  LEU235     -0.2867
     16  CB        46.7600   68.2680   53.5800 C.3   235  LEU235      0.0270
     17  CG        46.6030   68.9210   54.9560 C.3   235  LEU235      0.0019
     18  CD1       46.0300   70.3270   54.8350 C.3   235  LEU235      0.0001
     19  CD2       45.7100   68.0490   55.8210 C.3   235  LEU235      0.0001
     20  N         50.4140   71.4110   49.7830 N.3   238  ILE238     -0.1231
     21  CA        51.0830   72.4220   50.6120 C.3   238  ILE238      0.1692
     22  C         52.2590   71.7900   51.3420 C.2   238  ILE238      0.2592
     23  O         53.3290   72.3890   51.4450 O.2   238  ILE238     -0.2718
     24  CB        50.1350   73.0640   51.6680 C.3   238  ILE238      0.0266
     25  CG1       49.5920   72.0050   52.6290 C.3   238  ILE238      0.0019
     26  CG2       48.9840   73.7760   50.9740 C.3   238  ILE238      0.0020
     27  CD1       48.7070   72.5850   53.7260 C.3   238  ILE238      0.0001
     28  N         52.0500   70.5720   51.8440 N.am  239  GLY239     -0.1957
     29  CA        53.1090   69.8830   52.5620 C.3   239  GLY239      0.1869
     30  C         54.3460   69.6350   51.7180 C.2   239  GLY239      0.2309
     31  O         55.4530   69.5990   52.2380 O.2   239  GLY239     -0.2863
     32  N         61.8910   72.6340   62.7510 N.3   284  HIS284     -0.1226
     33  CA        61.0410   72.8030   61.5800 C.3   284  HIS284      0.1752
     34  C         59.9470   73.8730   61.6290 C.2   284  HIS284      0.2595
     35  O         59.6190   74.4710   60.6030 O.2   284  HIS284     -0.2718
     36  CB        60.3950   71.4580   61.2270 C.3   284  HIS284      0.0759
     37  CG        59.6440   71.4580   59.9260 C.ar  284  HIS284      0.0818
     38  ND1       60.2430   71.7420   58.7190 N.ar  284  HIS284     -0.2268
     39  CD2       58.3500   71.1740   59.6420 C.ar  284  HIS284      0.1154
     40  CE1       59.3540   71.6310   57.7490 C.ar  284  HIS284      0.1986
     41  NE2       58.1970   71.2880   58.2820 N.ar  284  HIS284     -0.2212
     42  N         59.3900   74.1170   62.8020 N.am  285  ARG285     -0.1980
     43  CA        58.3090   75.0860   62.9100 C.3   285  ARG285      0.1597
     44  C         58.4010   76.0070   64.1130 C.2   285  ARG285      0.2287
     45  O         59.2380   75.8320   64.9960 O.2   285  ARG285     -0.2864
     46  CB        56.9750   74.3510   63.0090 C.3   285  ARG285      0.0334
     47  CG        56.8440   73.5750   64.3180 C.3   285  ARG285      0.0492
     48  CD        55.4280   73.1380   64.6100 C.3   285  ARG285      0.2205
     49  NE        54.5130   74.2880   64.6500 N.pl3 285  ARG285     -0.0865
     50  CZ        53.6850   74.6140   63.6630 C.cat 285  ARG285      0.5346
     51  NH1       52.8990   75.6660   63.7820 N.pl3 285  ARG285      0.1354
     52  NH2       53.6330   73.8840   62.5520 N.pl3 285  ARG285      0.1354
     53  N         51.4970   73.2230   66.1380 N.3   289  GLY289     -0.1210
     54  CA        50.5410   73.3350   65.0450 C.3   289  GLY289      0.1956
     55  C         49.0700   73.0600   65.2760 C.2   289  GLY289      0.2611
     56  O         48.2870   73.9940   65.4730 O.2   289  GLY289     -0.2717
     57  N         48.6780   71.7930   65.2420 N.am  290  LEU290     -0.1979
     58  CA        47.2740   71.4370   65.4190 C.3   290  LEU290      0.1596
     59  C         47.0570   70.5430   66.6400 C.2   290  LEU290      0.2287
     60  O         47.6120   69.4510   66.7440 O.2   290  LEU290     -0.2864
     61  CB        46.7480   70.7440   64.1550 C.3   290  LEU290      0.0297
     62  CG        45.2320   70.5870   63.9960 C.3   290  LEU290      0.0022
     63  CD1       44.5580   71.9530   64.0730 C.3   290  LEU290      0.0001
     64  CD2       44.9210   69.9280   62.6530 C.3   290  LEU290      0.0001
     65  N         44.7900   68.4270   69.6860 N.3   292  ARG292     -0.1245
     66  CA        43.8960   67.2820   69.7190 C.3   292  ARG292      0.1563
     67  C         43.0600   67.5100   70.9730 C.2   292  ARG292      0.2260
     68  O         43.5390   68.1130   71.9360 O.2   292  ARG292     -0.2867
     69  CB        44.6850   65.9760   69.8330 C.3   292  ARG292      0.0307
     70  CG        45.4230   65.5860   68.5500 C.3   292  ARG292      0.0489
     71  CD        46.3370   64.3880   68.7840 C.3   292  ARG292      0.2205
     72  NE        47.0030   63.9320   67.5580 N.pl3 292  ARG292     -0.0865
     73  CZ        47.8830   64.6440   66.8650 C.cat 292  ARG292      0.5346
     74  NH1       48.2290   65.8640   67.2620 N.pl3 292  ARG292      0.1354
     75  NH2       48.4250   64.1300   65.7670 N.pl3 292  ARG292      0.1354
     76  N         48.2880   70.0420   73.0000 N.3   312  TYR312     -0.1227
     77  CA        49.2690   70.1290   71.9250 C.3   312  TYR312      0.1736
     78  C         50.4680   69.2780   72.2970 C.2   312  TYR312      0.2595
     79  O         50.7420   69.0470   73.4720 O.2   312  TYR312     -0.2718
     80  CB        49.8090   71.5500   71.7430 C.3   312  TYR312      0.0548
     81  CG        48.9460   72.4790   70.9330 C.ar  312  TYR312     -0.0200
     82  CD1       48.0940   73.3840   71.5590 C.ar  312  TYR312     -0.0009
     83  CD2       48.9990   72.4800   69.5420 C.ar  312  TYR312     -0.0009
     84  CE1       47.3200   74.2720   70.8240 C.ar  312  TYR312      0.0417
     85  CE2       48.2270   73.3650   68.7920 C.ar  312  TYR312      0.0417
     86  CZ        47.3900   74.2600   69.4420 C.ar  312  TYR312      0.1957
     87  OH        46.6230   75.1420   68.7310 O.3   312  TYR312     -0.2866
     88  N         51.1840   68.8200   71.2850 N.am  313  VAL313     -0.1980
     89  CA        52.4080   68.0680   71.5240 C.3   313  VAL313      0.1595
     90  C         53.4300   68.8910   70.7680 C.2   313  VAL313      0.2287
     91  O         53.0760   69.6050   69.8300 O.2   313  VAL313     -0.2864
     92  CB        52.3620   66.6460   70.9270 C.3   313  VAL313      0.0276
     93  CG1       51.1590   65.9030   71.4530 C.3   313  VAL313      0.0022
     94  CG2       52.3350   66.7090   69.3960 C.3   313  VAL313      0.0022
     95  N         56.7130   68.2530   68.7090 N.3   315  TYR315     -0.1241
     96  CA        57.6360   67.2710   68.1580 C.3   315  TYR315      0.1605
     97  C         59.0720   67.7870   68.3070 C.2   315  TYR315      0.2264
     98  O         60.0040   67.0170   68.5290 O.2   315  TYR315     -0.2867
     99  CB        57.2840   67.0170   66.6890 C.3   315  TYR315      0.0534
    100  CG        55.9490   66.3240   66.5020 C.ar  315  TYR315     -0.0201
    101  CD1       54.9840   66.8590   65.6420 C.ar  315  TYR315     -0.0009
    102  CD2       55.6800   65.1030   67.1240 C.ar  315  TYR315     -0.0009
    103  CE1       53.7860   66.1800   65.3980 C.ar  315  TYR315      0.0417
    104  CE2       54.4790   64.4290   66.8860 C.ar  315  TYR315      0.0417
    105  CZ        53.5450   64.9700   66.0190 C.ar  315  TYR315      0.1957
    106  OH        52.3990   64.2730   65.7180 O.3   315  TYR315     -0.2866
    107  N         56.1540   77.4200   59.2320 N.3   391  ILE391     -0.1245
    108  CA        57.3020   76.5480   59.0150 C.3   391  ILE391      0.1561
    109  C         58.5450   77.4430   58.9120 C.2   391  ILE391      0.2260
    110  O         58.7100   78.1940   57.9460 O.2   391  ILE391     -0.2867
    111  CB        57.1460   75.7360   57.7100 C.3   391  ILE391      0.0252
    112  CG1       55.7920   75.0140   57.7000 C.3   391  ILE391      0.0019
    113  CG2       58.2780   74.7230   57.6000 C.3   391  ILE391      0.0019
    114  CD1       55.5240   74.1640   58.9450 C.3   391  ILE391      0.0001
@<TRIPOS>BOND
     1    20    21    1
     2    21    22    1
     3    21    24    1
     4    26    24    1
     5    22    23    2
     6    22    28   am
     7    12    13    1
     8    24    25    1
     9    30    31    2
    10    30    29    1
    11    28    29    1
    12    14    15    2
    13    14    13    1
    14    13    16    1
    15    25    27    1
    16    16    17    1
    17    18    17    1
    18    17    19    1
    19   113   111    1
    20   112   111    1
    21   112   114    1
    22   111   108    1
    23    40    41   ar
    24    40    38   ar
    25   110   109    2
    26    41    39   ar
    27    38    37   ar
    28   109   108    1
    29   108   107    1
    30    39    37   ar
    31    37    36    1
    32    35    34    2
    33    36    33    1
    34    33    34    1
    35    33    32    1
    36    34    42   am
    37    52    50    1
    38    64    62    1
    39    42    43    1
    40    43    46    1
    41    43    44    1
    42    10     9    1
    43    46    47    1
    44    50    51    1
    45    50    49    2
    46    62    63    1
    47    62    61    1
    48    44    45    2
    49    61    58    1
    50     9    11    1
    51     9     8    2
    52    47    48    1
    53     5     6    1
    54     5     2    1
    55    48    49    1
    56     6     7    1
    57     7     8    1
    58    54    55    1
    59    54    53    1
    60     4     3    2
    61    57    55   am
    62    57    58    1
    63    55    56    2
    64     3     2    1
    65   103   101   ar
    66   103   105   ar
    67    58    59    1
    68   101   100   ar
    69   106   105    1
    70     2     1    1
    71    75    73    1
    72   105   104   ar
    73   100    99    1
    74   100   102   ar
    75    59    60    2
    76    99    96    1
    77    73    74    1
    78    73    72    2
    79   104   102   ar
    80    72    71    1
    81    96    97    1
    82    96    95    1
    83    97    98    2
    84    70    71    1
    85    70    69    1
    86    87    86    1
    87    85    86   ar
    88    85    83   ar
    89    94    92    1
    90    86    84   ar
    91    83    81   ar
    92    65    66    1
    93    66    69    1
    94    66    67    1
    95    91    90    2
    96    90    89    1
    97    84    82   ar
    98    92    93    1
    99    92    89    1
   100    81    82   ar
   101    81    80    1
   102    67    68    2
   103    88    89    1
   104    88    78   am
   105    80    77    1
   106    77    78    1
   107    77    76    1
   108    78    79    2
