@<TRIPOS>MOLECULE
tmp/2d09A02.pdb
 106 98 0 0 0
SMALL
GASTEIGER

@<TRIPOS>ATOM
      1  N         48.5660   79.3290   66.9210 N.3    79  LEU79      -0.1231
      2  CA        49.5050   80.2730   66.3230 C.3    79  LEU79       0.1693
      3  C         48.8960   80.9890   65.1270 C.2    79  LEU79       0.2591
      4  O         48.7630   82.2140   65.1210 O.2    79  LEU79      -0.2718
      5  CB        50.7730   79.5460   65.8610 C.3    79  LEU79       0.0284
      6  CG        52.1290   80.2330   66.0530 C.3    79  LEU79       0.0019
      7  CD1       53.1090   79.6580   65.0430 C.3    79  LEU79       0.0001
      8  CD2       52.0170   81.7440   65.8790 C.3    79  LEU79       0.0001
      9  N         48.5430   80.2200   64.1030 N.am   80  ALA80      -0.1980
     10  CA        47.9420   80.7830   62.9030 C.3    80  ALA80       0.1597
     11  C         46.5560   81.3270   63.2490 C.2    80  ALA80       0.2287
     12  O         45.8410   80.7360   64.0480 O.2    80  ALA80      -0.2864
     13  CB        47.8300   79.7040   61.8310 C.3    80  ALA80       0.0319
     14  N         44.5690   75.7290   58.9920 N.3    84  ILE84      -0.1231
     15  CA        45.1000   75.3650   57.6830 C.3    84  ILE84       0.1678
     16  C         44.2910   74.3130   56.9160 C.2    84  ILE84       0.2434
     17  O         43.9830   74.5000   55.7440 O.2    84  ILE84      -0.2733
     18  CB        46.5780   74.8880   57.7880 C.3    84  ILE84       0.0265
     19  CG1       47.4980   76.0650   58.1380 C.3    84  ILE84       0.0019
     20  CG2       47.0300   74.2890   56.4580 C.3    84  ILE84       0.0020
     21  CD1       47.2370   76.7100   59.5020 C.3    84  ILE84       0.0001
     22  N         43.9520   73.1890   57.5580 N.am   85  PRO85      -0.2729
     23  CA        43.1790   72.1750   56.8280 C.3    85  PRO85       0.1401
     24  C         41.6820   72.4630   56.7000 C.2    85  PRO85       0.2269
     25  O         41.0810   73.0860   57.5740 O.2    85  PRO85      -0.2865
     26  CB        43.4700   70.8960   57.6050 C.3    85  PRO85       0.0296
     27  CG        43.6800   71.3800   58.9930 C.3    85  PRO85       0.0237
     28  CD        44.4840   72.6390   58.8210 C.3    85  PRO85       0.0939
     29  N         43.7490   66.1640   58.1410 N.3    91  GLY91      -0.1225
     30  CA        44.2060   66.8270   59.3490 C.3    91  GLY91       0.1811
     31  C         43.1120   66.8800   60.4020 C.2    91  GLY91       0.2280
     32  O         43.3860   66.7450   61.5900 O.2    91  GLY91      -0.2866
     33  N         50.3330   79.2960   54.4750 N.3   176  LEU176     -0.1245
     34  CA        51.3360   79.0880   55.5080 C.3   176  LEU176      0.1561
     35  C         52.0310   80.4230   55.7550 C.2   176  LEU176      0.2260
     36  O         52.9870   80.4940   56.5230 O.2   176  LEU176     -0.2867
     37  CB        52.3710   78.0540   55.0540 C.3   176  LEU176      0.0270
     38  CG        51.8850   76.6640   54.6400 C.3   176  LEU176      0.0019
     39  CD1       53.0960   75.8100   54.2610 C.3   176  LEU176      0.0001
     40  CD2       51.1070   76.0130   55.7740 C.3   176  LEU176      0.0001
     41  N         46.3600   69.2570   51.3680 N.3   235  LEU235     -0.1245
     42  CA        47.3310   69.1360   52.4450 C.3   235  LEU235      0.1561
     43  C         48.6400   68.5350   51.9260 C.2   235  LEU235      0.2260
     44  O         49.7230   68.8730   52.4020 O.2   235  LEU235     -0.2867
     45  CB        46.7600   68.2680   53.5800 C.3   235  LEU235      0.0270
     46  CG        46.6030   68.9210   54.9560 C.3   235  LEU235      0.0019
     47  CD1       46.0300   70.3270   54.8350 C.3   235  LEU235      0.0001
     48  CD2       45.7100   68.0490   55.8210 C.3   235  LEU235      0.0001
     49  N         50.4140   71.4110   49.7830 N.3   238  ILE238     -0.1231
     50  CA        51.0830   72.4220   50.6120 C.3   238  ILE238      0.1692
     51  C         52.2590   71.7900   51.3420 C.2   238  ILE238      0.2592
     52  O         53.3290   72.3890   51.4450 O.2   238  ILE238     -0.2718
     53  CB        50.1350   73.0640   51.6680 C.3   238  ILE238      0.0266
     54  CG1       49.5920   72.0050   52.6290 C.3   238  ILE238      0.0019
     55  CG2       48.9840   73.7760   50.9740 C.3   238  ILE238      0.0020
     56  CD1       48.7070   72.5850   53.7260 C.3   238  ILE238      0.0001
     57  N         52.0500   70.5720   51.8440 N.am  239  GLY239     -0.1957
     58  CA        53.1090   69.8830   52.5620 C.3   239  GLY239      0.1869
     59  C         54.3460   69.6350   51.7180 C.2   239  GLY239      0.2309
     60  O         55.4530   69.5990   52.2380 O.2   239  GLY239     -0.2863
     61  N         59.3900   74.1170   62.8020 N.3   285  ARG285     -0.1245
     62  CA        58.3090   75.0860   62.9100 C.3   285  ARG285      0.1563
     63  C         58.4010   76.0070   64.1130 C.2   285  ARG285      0.2260
     64  O         59.2380   75.8320   64.9960 O.2   285  ARG285     -0.2867
     65  CB        56.9750   74.3510   63.0090 C.3   285  ARG285      0.0307
     66  CG        56.8440   73.5750   64.3180 C.3   285  ARG285      0.0489
     67  CD        55.4280   73.1380   64.6100 C.3   285  ARG285      0.2205
     68  NE        54.5130   74.2880   64.6500 N.pl3 285  ARG285     -0.0865
     69  CZ        53.6850   74.6140   63.6630 C.cat 285  ARG285      0.5346
     70  NH1       52.8990   75.6660   63.7820 N.pl3 285  ARG285      0.1354
     71  NH2       53.6330   73.8840   62.5520 N.pl3 285  ARG285      0.1354
     72  N         53.7150   75.3600   68.0930 N.3   288  VAL288     -0.1231
     73  CA        53.0460   74.0960   67.8100 C.3   288  VAL288      0.1692
     74  C         52.0020   74.3130   66.7170 C.2   288  VAL288      0.2593
     75  O         51.6610   75.4600   66.4060 O.2   288  VAL288     -0.2718
     76  CB        52.3970   73.5380   69.0910 C.3   288  VAL288      0.0266
     77  CG1       53.4840   73.0220   70.0160 C.3   288  VAL288      0.0020
     78  CG2       51.5890   74.6280   69.7980 C.3   288  VAL288      0.0020
     79  N         51.4970   73.2230   66.1380 N.am  289  GLY289     -0.1942
     80  CA        50.5410   73.3350   65.0450 C.3   289  GLY289      0.2014
     81  C         49.0700   73.0600   65.2760 C.2   289  GLY289      0.2638
     82  O         48.2870   73.9940   65.4730 O.2   289  GLY289     -0.2714
     83  N         48.6780   71.7930   65.2420 N.am  290  LEU290     -0.1977
     84  CA        47.2740   71.4370   65.4190 C.3   290  LEU290      0.1596
     85  C         47.0570   70.5430   66.6400 C.2   290  LEU290      0.2287
     86  O         47.6120   69.4510   66.7440 O.2   290  LEU290     -0.2864
     87  CB        46.7480   70.7440   64.1550 C.3   290  LEU290      0.0297
     88  CG        45.2320   70.5870   63.9960 C.3   290  LEU290      0.0022
     89  CD1       44.5580   71.9530   64.0730 C.3   290  LEU290      0.0001
     90  CD2       44.9210   69.9280   62.6530 C.3   290  LEU290      0.0001
     91  N         54.8640   79.7220   59.7720 N.3   390  LEU390     -0.1231
     92  CA        54.4880   78.5500   60.5460 C.3   390  LEU390      0.1693
     93  C         55.6620   77.5990   60.4510 C.2   390  LEU390      0.2591
     94  O         56.1170   77.0530   61.4510 O.2   390  LEU390     -0.2718
     95  CB        53.2310   77.9220   59.9540 C.3   390  LEU390      0.0284
     96  CG        52.0480   78.8880   59.9480 C.3   390  LEU390      0.0019
     97  CD1       50.8890   78.2890   59.1850 C.3   390  LEU390      0.0001
     98  CD2       51.6470   79.2110   61.3890 C.3   390  LEU390      0.0001
     99  N         56.1540   77.4200   59.2320 N.am  391  ILE391     -0.1980
    100  CA        57.3020   76.5480   59.0150 C.3   391  ILE391      0.1595
    101  C         58.5450   77.4430   58.9120 C.2   391  ILE391      0.2287
    102  O         58.7100   78.1940   57.9460 O.2   391  ILE391     -0.2864
    103  CB        57.1460   75.7360   57.7100 C.3   391  ILE391      0.0276
    104  CG1       55.7920   75.0140   57.7000 C.3   391  ILE391      0.0022
    105  CG2       58.2780   74.7230   57.6000 C.3   391  ILE391      0.0022
    106  CD1       55.5240   74.1640   58.9450 C.3   391  ILE391      0.0001
@<TRIPOS>BOND
     1    49    50    1
     2    50    51    1
     3    50    53    1
     4    55    53    1
     5    51    52    2
     6    51    57   am
     7    41    42    1
     8    53    54    1
     9    59    60    2
    10    59    58    1
    11    57    58    1
    12    43    44    2
    13    43    42    1
    14    42    45    1
    15    54    56    1
    16    45    46    1
    17    39    38    1
    18    33    34    1
    19    38    37    1
    20    38    40    1
    21    47    46    1
    22    46    48    1
    23    37    34    1
    24    34    35    1
    25    17    16    2
    26    35    36    2
    27    20    18    1
    28    24    23    1
    29    24    25    2
    30    23    22    1
    31    23    26    1
    32    16    22   am
    33    16    15    1
    34    22    28    1
    35   105   103    1
    36    26    27    1
    37    15    18    1
    38    15    14    1
    39   104   103    1
    40   104   106    1
    41   103   100    1
    42    18    19    1
    43   102   101    2
    44    19    21    1
    45    29    30    1
    46    28    27    1
    47   101   100    1
    48   100    99    1
    49    97    96    1
    50    99    93   am
    51    30    31    1
    52    91    92    1
    53    96    95    1
    54    96    98    1
    55    95    92    1
    56    31    32    2
    57    93    92    1
    58    93    94    2
    59    13    10    1
    60    71    69    1
    61    90    88    1
    62    61    62    1
    63    10    11    1
    64    10     9    1
    65    62    65    1
    66    62    63    1
    67    65    66    1
    68    11    12    2
    69    69    70    1
    70    69    68    2
    71    88    89    1
    72    88    87    1
    73     9     3   am
    74    63    64    2
    75    87    84    1
    76    66    67    1
    77    67    68    1
    78     7     6    1
    79    80    81    1
    80    80    79    1
    81     4     3    2
    82     3     2    1
    83    83    81   am
    84    83    84    1
    85    81    82    2
    86    84    85    1
    87     5     6    1
    88     5     2    1
    89     8     6    1
    90    79    74   am
    91     2     1    1
    92    75    74    2
    93    85    86    2
    94    74    73    1
    95    73    72    1
    96    73    76    1
    97    76    78    1
    98    76    77    1
