@<TRIPOS>MOLECULE
tmp/2d0eA01.pdb
 101 93 0 0 0
SMALL
GASTEIGER

@<TRIPOS>ATOM
      1  N        -14.0230  -28.2620  121.7720 N.3    68  ARG68      -0.1245
      2  CA       -14.1720  -29.5160  121.0430 C.3    68  ARG68       0.1563
      3  C        -12.8360  -30.1890  120.7340 C.2    68  ARG68       0.2260
      4  O        -12.7170  -31.4130  120.8330 O.2    68  ARG68      -0.2867
      5  CB       -14.9210  -29.2750  119.7260 C.3    68  ARG68       0.0307
      6  CG       -16.4330  -29.3370  119.8310 C.3    68  ARG68       0.0489
      7  CD       -16.8920  -30.7740  120.0170 C.3    68  ARG68       0.2205
      8  NE       -18.3470  -30.8860  120.1000 N.pl3  68  ARG68      -0.0865
      9  CZ       -19.1850  -30.5780  119.1120 C.cat  68  ARG68       0.5346
     10  NH1      -18.7200  -30.1360  117.9490 N.pl3  68  ARG68       0.1354
     11  NH2      -20.4920  -30.7120  119.2900 N.pl3  68  ARG68       0.1354
     12  N        -18.3970  -34.1320  105.9540 N.3   235  LEU235     -0.1245
     13  CA       -19.4860  -34.0230  106.9180 C.3   235  LEU235      0.1561
     14  C        -20.7490  -33.3890  106.3340 C.2   235  LEU235      0.2260
     15  O        -21.8600  -33.7020  106.7660 O.2   235  LEU235     -0.2867
     16  CB       -19.0330  -33.2520  108.1540 C.3   235  LEU235      0.0270
     17  CG       -19.4160  -33.9370  109.4710 C.3   235  LEU235      0.0019
     18  CD1      -20.9310  -34.0010  109.6140 C.3   235  LEU235      0.0001
     19  CD2      -18.8150  -35.3490  109.5040 C.3   235  LEU235      0.0001
     20  N        -22.4570  -36.1310  104.3260 N.3   238  ILE238     -0.1231
     21  CA       -23.0880  -37.0470  105.2690 C.3   238  ILE238      0.1692
     22  C        -24.3090  -36.4270  105.9460 C.2   238  ILE238      0.2592
     23  O        -25.3780  -37.0360  105.9950 O.2   238  ILE238     -0.2718
     24  CB       -22.1000  -37.4770  106.3630 C.3   238  ILE238      0.0266
     25  CG1      -20.9490  -38.2660  105.7390 C.3   238  ILE238      0.0019
     26  CG2      -22.8200  -38.2760  107.4230 C.3   238  ILE238      0.0020
     27  CD1      -19.9160  -38.7520  106.7420 C.3   238  ILE238      0.0001
     28  N        -24.1400  -35.2220  106.4800 N.am  239  GLY239     -0.1957
     29  CA       -25.2440  -34.5650  107.1520 C.3   239  GLY239      0.1869
     30  C        -26.4040  -34.3630  106.1990 C.2   239  GLY239      0.2309
     31  O        -27.5730  -34.3280  106.6130 O.2   239  GLY239     -0.2863
     32  N        -29.3170  -36.4620  106.6060 N.3   242  ALA242     -0.1245
     33  CA       -30.0500  -36.3690  107.8690 C.3   242  ALA242      0.1562
     34  C        -31.5290  -36.0450  107.6380 C.2   242  ALA242      0.2260
     35  O        -32.3910  -36.4020  108.4530 O.2   242  ALA242     -0.2867
     36  CB       -29.4160  -35.3060  108.7790 C.3   242  ALA242      0.0290
     37  N        -34.9840  -36.3500  116.8680 N.3   284  HIS284     -0.1226
     38  CA       -34.0700  -36.6100  115.7590 C.3   284  HIS284      0.1752
     39  C        -33.0360  -37.7210  115.9520 C.2   284  HIS284      0.2595
     40  O        -32.8530  -38.5490  115.0610 O.2   284  HIS284     -0.2718
     41  CB       -33.3550  -35.3060  115.4000 C.3   284  HIS284      0.0759
     42  CG       -32.5620  -35.3710  114.1320 C.ar  284  HIS284      0.0818
     43  ND1      -33.1370  -35.6230  112.9050 N.ar  284  HIS284     -0.2268
     44  CD2      -31.2440  -35.1710  113.8970 C.ar  284  HIS284      0.1154
     45  CE1      -32.2070  -35.5750  111.9680 C.ar  284  HIS284      0.1986
     46  NE2      -31.0490  -35.3020  112.5440 N.ar  284  HIS284     -0.2212
     47  N        -32.3660  -37.7410  117.1050 N.am  285  ARG285     -0.1980
     48  CA       -31.3290  -38.7400  117.3740 C.3   285  ARG285      0.1597
     49  C        -31.5540  -39.5440  118.6540 C.2   285  ARG285      0.2287
     50  O        -32.5040  -39.3070  119.4020 O.2   285  ARG285     -0.2864
     51  CB       -29.9740  -38.0520  117.5090 C.3   285  ARG285      0.0334
     52  CG       -29.9080  -37.0850  118.7070 C.3   285  ARG285      0.0492
     53  CD       -28.4840  -36.6330  118.9950 C.3   285  ARG285      0.2205
     54  NE       -27.6160  -37.7800  119.1990 N.pl3 285  ARG285     -0.0865
     55  CZ       -26.5890  -38.0870  118.4130 C.cat 285  ARG285      0.5346
     56  NH1      -25.8590  -39.1710  118.6630 N.pl3 285  ARG285      0.1354
     57  NH2      -26.2800  -37.3030  117.3890 N.pl3 285  ARG285      0.1354
     58  N        -24.8670  -36.4110  120.9890 N.3   289  GLY289     -0.1210
     59  CA       -23.7900  -36.5110  120.0160 C.3   289  GLY289      0.1956
     60  C        -22.3440  -36.3490  120.4630 C.2   289  GLY289      0.2611
     61  O        -21.7880  -37.2220  121.1310 O.2   289  GLY289     -0.2717
     62  N        -21.7250  -35.2400  120.0680 N.am  290  LEU290     -0.1979
     63  CA       -20.3320  -34.9680  120.4020 C.3   290  LEU290      0.1596
     64  C        -20.2350  -33.9980  121.5750 C.2   290  LEU290      0.2287
     65  O        -20.7770  -32.8910  121.5320 O.2   290  LEU290     -0.2864
     66  CB       -19.6110  -34.3820  119.1900 C.3   290  LEU290      0.0297
     67  CG       -18.1820  -34.8550  118.8830 C.3   290  LEU290      0.0022
     68  CD1      -17.6590  -34.0710  117.6860 C.3   290  LEU290      0.0001
     69  CD2      -17.2660  -34.6530  120.0910 C.3   290  LEU290      0.0001
     70  N        -30.1480  -31.3450  122.8840 N.3   315  TYR315     -0.1241
     71  CA       -30.9980  -30.3980  122.1830 C.3   315  TYR315      0.1605
     72  C        -32.4420  -30.8900  122.2230 C.2   315  TYR315      0.2264
     73  O        -33.3800  -30.0920  122.2460 O.2   315  TYR315     -0.2867
     74  CB       -30.5290  -30.2520  120.7330 C.3   315  TYR315      0.0534
     75  CG       -29.1780  -29.5920  120.5950 C.ar  315  TYR315     -0.0201
     76  CD1      -28.1110  -30.2500  119.9850 C.ar  315  TYR315     -0.0009
     77  CD2      -28.9850  -28.2780  121.0250 C.ar  315  TYR315     -0.0009
     78  CE1      -26.8890  -29.6080  119.7940 C.ar  315  TYR315      0.0417
     79  CE2      -27.7730  -27.6290  120.8440 C.ar  315  TYR315      0.0417
     80  CZ       -26.7340  -28.2880  120.2240 C.ar  315  TYR315      0.1957
     81  OH       -25.5780  -27.5960  119.9760 O.3   315  TYR315     -0.2866
     82  N        -33.0040  -27.5790  117.4950 N.3   342  SER342     -0.1217
     83  CA       -32.8450  -28.8220  116.7560 C.3   342  SER342      0.1889
     84  C        -31.6540  -28.7800  115.8080 C.2   342  SER342      0.2288
     85  O        -31.0870  -29.8210  115.4880 O.2   342  SER342     -0.2866
     86  CB       -34.1160  -29.1300  115.9740 C.3   342  SER342      0.2089
     87  OG       -35.1900  -29.3450  116.8620 O.3   342  SER342     -0.2183
     88  N        -25.7570  -26.0750  113.0220 N.3   350  CYS350     -0.1235
     89  CA       -25.8390  -26.7050  111.7040 C.3   350  CYS350      0.1677
     90  C        -25.8370  -25.7800  110.4900 C.2   350  CYS350      0.2270
     91  O        -26.7240  -24.9560  110.3200 O.2   350  CYS350     -0.2867
     92  CB       -27.0790  -27.6060  111.6320 C.3   350  CYS350      0.0956
     93  SG       -27.3100  -28.4040  110.0260 S.3   350  CYS350     -0.0801
     94  N        -29.0050  -41.4860  114.3500 N.3   391  ILE391     -0.1245
     95  CA       -30.1710  -40.6800  114.0150 C.3   391  ILE391      0.1561
     96  C        -31.3950  -41.5910  113.9230 C.2   391  ILE391      0.2260
     97  O        -31.3720  -42.6090  113.2320 O.2   391  ILE391     -0.2867
     98  CB       -29.9700  -39.9330  112.6780 C.3   391  ILE391      0.0252
     99  CG1      -28.6120  -39.2240  112.6760 C.3   391  ILE391      0.0019
    100  CG2      -31.0880  -38.9250  112.4780 C.3   391  ILE391      0.0019
    101  CD1      -28.3970  -38.2920  113.8620 C.3   391  ILE391      0.0001
@<TRIPOS>BOND
     1    20    21    1
     2    21    22    1
     3    21    24    1
     4    25    24    1
     5    25    27    1
     6    22    23    2
     7    22    28   am
     8    12    13    1
     9    30    31    2
    10    30    29    1
    11    14    15    2
    12    14    13    1
    13    24    26    1
    14    28    29    1
    15    32    33    1
    16    13    16    1
    17    34    33    1
    18    34    35    2
    19    33    36    1
    20    16    17    1
    21    17    19    1
    22    17    18    1
    23    93    92    1
    24    91    90    2
    25    90    89    1
    26    92    89    1
    27    89    88    1
    28    45    46   ar
    29    45    43   ar
    30   100    98    1
    31    46    44   ar
    32    99    98    1
    33    99   101    1
    34    98    95    1
    35    43    42   ar
    36    97    96    2
    37    44    42   ar
    38    96    95    1
    39    95    94    1
    40    42    41    1
    41    40    39    2
    42    41    38    1
    43    85    84    2
    44    38    39    1
    45    38    37    1
    46    84    83    1
    47    39    47   am
    48    86    83    1
    49    86    87    1
    50    83    82    1
    51    47    48    1
    52    48    51    1
    53    48    49    1
    54    57    55    1
    55    51    52    1
    56    68    67    1
    57    10     9    1
    58    55    56    1
    59    55    54    2
    60    49    50    2
    61    52    53    1
    62    67    66    1
    63    67    69    1
    64    53    54    1
    65     9    11    1
    66     9     8    2
    67    66    63    1
    68     5     6    1
    69     5     2    1
    70    78    76   ar
    71    78    80   ar
    72     6     7    1
    73    81    80    1
    74    76    75   ar
    75    59    60    1
    76    59    58    1
    77     7     8    1
    78    62    63    1
    79    62    60   am
    80    80    79   ar
    81    63    64    1
    82    60    61    2
    83    75    74    1
    84    75    77   ar
    85    74    71    1
    86     3     4    2
    87     3     2    1
    88    79    77   ar
    89     2     1    1
    90    65    64    2
    91    71    72    1
    92    71    70    1
    93    72    73    2
