@<TRIPOS>MOLECULE
tmp/2d0eA02.pdb
 87 80 0 0 0
SMALL
GASTEIGER

@<TRIPOS>ATOM
      1  N        -16.6830  -40.3050  114.2770 N.3    84  ILE84      -0.1231
      2  CA       -16.9350  -40.1920  112.8420 C.3    84  ILE84       0.1678
      3  C        -16.0000  -39.1870  112.1660 C.2    84  ILE84       0.2434
      4  O        -15.3010  -39.5270  111.2090 O.2    84  ILE84      -0.2733
      5  CB       -18.4000  -39.7700  112.5750 C.3    84  ILE84       0.0265
      6  CG1      -19.3540  -40.7240  113.2960 C.3    84  ILE84       0.0019
      7  CG2      -18.6730  -39.7560  111.0840 C.3    84  ILE84       0.0020
      8  CD1      -20.7930  -40.2600  113.3160 C.3    84  ILE84       0.0001
      9  N        -15.9780  -37.9320  112.6560 N.am   85  PRO85      -0.2729
     10  CA       -15.1120  -36.9000  112.0720 C.3    85  PRO85       0.1401
     11  C        -13.6420  -37.0410  112.4700 C.2    85  PRO85       0.2269
     12  O        -13.3220  -37.2660  113.6380 O.2    85  PRO85      -0.2865
     13  CB       -15.7420  -35.6050  112.5750 C.3    85  PRO85       0.0296
     14  CG       -16.2610  -35.9920  113.9160 C.3    85  PRO85       0.0237
     15  CD       -16.8550  -37.3600  113.6960 C.3    85  PRO85       0.0939
     16  N        -21.5160  -44.4110  109.0060 N.3   176  LEU176     -0.1245
     17  CA       -22.4020  -44.2900  110.1500 C.3   176  LEU176      0.1561
     18  C        -22.8740  -45.6750  110.5830 C.2   176  LEU176      0.2260
     19  O        -23.7250  -45.7810  111.4650 O.2   176  LEU176     -0.2867
     20  CB       -23.6300  -43.4500  109.7950 C.3   176  LEU176      0.0270
     21  CG       -23.4700  -42.0260  109.2570 C.3   176  LEU176      0.0019
     22  CD1      -24.8350  -41.5180  108.8080 C.3   176  LEU176      0.0001
     23  CD2      -22.8620  -41.1140  110.3220 C.3   176  LEU176      0.0001
     24  N        -18.3970  -34.1320  105.9540 N.3   235  LEU235     -0.1245
     25  CA       -19.4860  -34.0230  106.9180 C.3   235  LEU235      0.1561
     26  C        -20.7490  -33.3890  106.3340 C.2   235  LEU235      0.2260
     27  O        -21.8600  -33.7020  106.7660 O.2   235  LEU235     -0.2867
     28  CB       -19.0330  -33.2520  108.1540 C.3   235  LEU235      0.0270
     29  CG       -19.4160  -33.9370  109.4710 C.3   235  LEU235      0.0019
     30  CD1      -20.9310  -34.0010  109.6140 C.3   235  LEU235      0.0001
     31  CD2      -18.8150  -35.3490  109.5040 C.3   235  LEU235      0.0001
     32  N        -22.4570  -36.1310  104.3260 N.3   238  ILE238     -0.1231
     33  CA       -23.0880  -37.0470  105.2690 C.3   238  ILE238      0.1692
     34  C        -24.3090  -36.4270  105.9460 C.2   238  ILE238      0.2592
     35  O        -25.3780  -37.0360  105.9950 O.2   238  ILE238     -0.2718
     36  CB       -22.1000  -37.4770  106.3630 C.3   238  ILE238      0.0266
     37  CG1      -20.9490  -38.2660  105.7390 C.3   238  ILE238      0.0019
     38  CG2      -22.8200  -38.2760  107.4230 C.3   238  ILE238      0.0020
     39  CD1      -19.9160  -38.7520  106.7420 C.3   238  ILE238      0.0001
     40  N        -24.1400  -35.2220  106.4800 N.am  239  GLY239     -0.1957
     41  CA       -25.2440  -34.5650  107.1520 C.3   239  GLY239      0.1869
     42  C        -26.4040  -34.3630  106.1990 C.2   239  GLY239      0.2309
     43  O        -27.5730  -34.3280  106.6130 O.2   239  GLY239     -0.2863
     44  N        -29.3170  -36.4620  106.6060 N.3   242  ALA242     -0.1245
     45  CA       -30.0500  -36.3690  107.8690 C.3   242  ALA242      0.1562
     46  C        -31.5290  -36.0450  107.6380 C.2   242  ALA242      0.2260
     47  O        -32.3910  -36.4020  108.4530 O.2   242  ALA242     -0.2867
     48  CB       -29.4160  -35.3060  108.7790 C.3   242  ALA242      0.0290
     49  N        -32.3660  -37.7410  117.1050 N.3   285  ARG285     -0.1245
     50  CA       -31.3290  -38.7400  117.3740 C.3   285  ARG285      0.1563
     51  C        -31.5540  -39.5440  118.6540 C.2   285  ARG285      0.2260
     52  O        -32.5040  -39.3070  119.4020 O.2   285  ARG285     -0.2867
     53  CB       -29.9740  -38.0520  117.5090 C.3   285  ARG285      0.0307
     54  CG       -29.9080  -37.0850  118.7070 C.3   285  ARG285      0.0489
     55  CD       -28.4840  -36.6330  118.9950 C.3   285  ARG285      0.2205
     56  NE       -27.6160  -37.7800  119.1990 N.pl3 285  ARG285     -0.0865
     57  CZ       -26.5890  -38.0870  118.4130 C.cat 285  ARG285      0.5346
     58  NH1      -25.8590  -39.1710  118.6630 N.pl3 285  ARG285      0.1354
     59  NH2      -26.2800  -37.3030  117.3890 N.pl3 285  ARG285      0.1354
     60  N        -24.8670  -36.4110  120.9890 N.3   289  GLY289     -0.1210
     61  CA       -23.7900  -36.5110  120.0160 C.3   289  GLY289      0.1956
     62  C        -22.3440  -36.3490  120.4630 C.2   289  GLY289      0.2611
     63  O        -21.7880  -37.2220  121.1310 O.2   289  GLY289     -0.2717
     64  N        -21.7250  -35.2400  120.0680 N.am  290  LEU290     -0.1979
     65  CA       -20.3320  -34.9680  120.4020 C.3   290  LEU290      0.1596
     66  C        -20.2350  -33.9980  121.5750 C.2   290  LEU290      0.2287
     67  O        -20.7770  -32.8910  121.5320 O.2   290  LEU290     -0.2864
     68  CB       -19.6110  -34.3820  119.1900 C.3   290  LEU290      0.0297
     69  CG       -18.1820  -34.8550  118.8830 C.3   290  LEU290      0.0022
     70  CD1      -17.6590  -34.0710  117.6860 C.3   290  LEU290      0.0001
     71  CD2      -17.2660  -34.6530  120.0910 C.3   290  LEU290      0.0001
     72  N        -27.5670  -43.7460  115.1960 N.3   390  LEU390     -0.1231
     73  CA       -27.3670  -42.4740  115.8650 C.3   390  LEU390      0.1693
     74  C        -28.6010  -41.6000  115.6090 C.2   390  LEU390      0.2591
     75  O        -29.1860  -41.0540  116.5320 O.2   390  LEU390     -0.2718
     76  CB       -26.1010  -41.7990  115.3360 C.3   390  LEU390      0.0284
     77  CG       -24.8070  -42.6110  115.4710 C.3   390  LEU390      0.0019
     78  CD1      -23.6670  -41.8950  114.7580 C.3   390  LEU390      0.0001
     79  CD2      -24.4680  -42.7940  116.9360 C.3   390  LEU390      0.0001
     80  N        -29.0050  -41.4860  114.3500 N.am  391  ILE391     -0.1980
     81  CA       -30.1710  -40.6800  114.0150 C.3   391  ILE391      0.1595
     82  C        -31.3950  -41.5910  113.9230 C.2   391  ILE391      0.2287
     83  O        -31.3720  -42.6090  113.2320 O.2   391  ILE391     -0.2864
     84  CB       -29.9700  -39.9330  112.6780 C.3   391  ILE391      0.0276
     85  CG1      -28.6120  -39.2240  112.6760 C.3   391  ILE391      0.0022
     86  CG2      -31.0880  -38.9250  112.4780 C.3   391  ILE391      0.0022
     87  CD1      -28.3970  -38.2920  113.8620 C.3   391  ILE391      0.0001
@<TRIPOS>BOND
     1    32    33    1
     2    33    34    1
     3    33    36    1
     4    37    36    1
     5    37    39    1
     6    34    35    2
     7    34    40   am
     8    24    25    1
     9    42    43    2
    10    42    41    1
    11    26    27    2
    12    26    25    1
    13    36    38    1
    14    40    41    1
    15    44    45    1
    16    25    28    1
    17    46    45    1
    18    46    47    2
    19    45    48    1
    20    28    29    1
    21    22    21    1
    22    16    17    1
    23    21    20    1
    24    21    23    1
    25    29    31    1
    26    29    30    1
    27    20    17    1
    28    17    18    1
    29    18    19    2
    30     7     5    1
    31     4     3    2
    32    10    11    1
    33    10    13    1
    34    10     9    1
    35     3     9   am
    36     3     2    1
    37    11    12    2
    38    86    84    1
    39     5     2    1
    40     5     6    1
    41    13    14    1
    42     9    15    1
    43    85    84    1
    44    85    87    1
    45    84    81    1
    46     2     1    1
    47    83    82    2
    48     6     8    1
    49    15    14    1
    50    82    81    1
    51    81    80    1
    52    80    74   am
    53    78    77    1
    54    72    73    1
    55    76    77    1
    56    76    73    1
    57    77    79    1
    58    74    73    1
    59    74    75    2
    60    49    50    1
    61    50    53    1
    62    50    51    1
    63    59    57    1
    64    53    54    1
    65    70    69    1
    66    57    58    1
    67    57    56    2
    68    51    52    2
    69    54    55    1
    70    69    68    1
    71    69    71    1
    72    55    56    1
    73    68    65    1
    74    61    62    1
    75    61    60    1
    76    64    65    1
    77    64    62   am
    78    65    66    1
    79    62    63    2
    80    67    66    2
