@<TRIPOS>MOLECULE
tmp/2d0fA00.pdb
 213 206 0 0 0
SMALL
GASTEIGER

@<TRIPOS>ATOM
      1  N          9.4640   52.7500   14.9980 N.3   159  TYR159     -0.1241
      2  CA         9.8650   52.5020   16.3730 C.3   159  TYR159      0.1605
      3  C         10.7570   53.6610   16.7770 C.2   159  TYR159      0.2264
      4  O         11.7840   53.9150   16.1440 O.2   159  TYR159     -0.2867
      5  CB        10.6270   51.1830   16.5060 C.3   159  TYR159      0.0534
      6  CG        11.3010   51.0450   17.8480 C.ar  159  TYR159     -0.0201
      7  CD1       12.6920   51.0170   17.9480 C.ar  159  TYR159     -0.0009
      8  CD2       10.5490   51.0000   19.0250 C.ar  159  TYR159     -0.0009
      9  CE1       13.3230   50.9520   19.1870 C.ar  159  TYR159      0.0417
     10  CE2       11.1700   50.9330   20.2730 C.ar  159  TYR159      0.0417
     11  CZ        12.5570   50.9120   20.3460 C.ar  159  TYR159      0.1957
     12  OH        13.1800   50.8660   21.5710 O.3   159  TYR159     -0.2866
     13  N         17.2690   52.4790   10.2770 N.3   180  ASP180     -0.1225
     14  CA        18.0850   52.0120   11.3990 C.3   180  ASP180      0.1805
     15  C         18.5050   50.5460   11.2530 C.2   180  ASP180      0.2598
     16  O         17.7220   49.7130   10.8030 O.2   180  ASP180     -0.2718
     17  CB        17.3040   52.1880   12.7050 C.3   180  ASP180      0.1424
     18  CG        18.1590   51.9410   13.9350 C.2   180  ASP180      0.3668
     19  OD1       18.8730   52.8720   14.3640 O.co2 180  ASP180     -0.2456
     20  OD2       18.1280   50.8120   14.4630 O.co2 180  ASP180     -0.2456
     21  N         19.7380   50.2340   11.6490 N.am  181  ASN181     -0.1960
     22  CA        20.2500   48.8690   11.5550 C.3   181  ASN181      0.1819
     23  C         19.3830   47.8560   12.3020 C.2   181  ASN181      0.2622
     24  O         19.2740   46.7010   11.8840 O.2   181  ASN181     -0.2715
     25  CB        21.6890   48.7810   12.0920 C.3   181  ASN181      0.1195
     26  CG        22.7100   49.4170   11.1590 C.2   181  ASN181      0.2630
     27  OD1       22.4460   49.6320    9.9770 O.2   181  ASN181     -0.2716
     28  ND2       23.8950   49.7010   11.6900 N.am  181  ASN181     -0.0877
     29  N         18.7730   48.2840   13.4040 N.am  182  SER182     -0.1950
     30  CA        17.9250   47.3990   14.2000 C.3   182  SER182      0.1924
     31  C         16.5140   47.2810   13.6390 C.2   182  SER182      0.2314
     32  O         15.6880   46.5440   14.1770 O.2   182  SER182     -0.2863
     33  CB        17.8460   47.8910   15.6470 C.3   182  SER182      0.2116
     34  OG        19.1010   47.7750   16.2960 O.3   182  SER182     -0.2180
     35  N         12.1780   45.5210   16.9960 N.3   219  THR219     -0.1218
     36  CA        13.4460   45.3810   16.2720 C.3   219  THR219      0.1862
     37  C         13.5870   44.0710   15.4980 C.2   219  THR219      0.2287
     38  O         12.7130   43.2100   15.5540 O.2   219  THR219     -0.2866
     39  CB        14.6580   45.5060   17.2270 C.3   219  THR219      0.1770
     40  OG1       14.6620   44.4070   18.1500 O.3   219  THR219     -0.2211
     41  CG2       14.5930   46.8230   18.0010 C.3   219  THR219      0.0375
     42  N         16.2310   41.9870   15.9450 N.3   221  HIS221     -0.1241
     43  CA        16.8810   41.0000   16.8070 C.3   221  HIS221      0.1621
     44  C         15.8670   40.5620   17.8610 C.2   221  HIS221      0.2264
     45  O         15.8820   39.4270   18.3310 O.2   221  HIS221     -0.2867
     46  CB        18.1270   41.5840   17.4780 C.3   221  HIS221      0.0745
     47  CG        17.8600   42.7950   18.3140 C.ar  221  HIS221      0.0817
     48  ND1       18.1090   44.0780   17.8700 N.ar  221  HIS221     -0.2268
     49  CD2       17.3770   42.9200   19.5720 C.ar  221  HIS221      0.1154
     50  CE1       17.7910   44.9390   18.8190 C.ar  221  HIS221      0.1986
     51  NE2       17.3440   44.2620   19.8620 N.ar  221  HIS221     -0.2212
     52  N         15.3550   41.4860   21.1300 N.3   223  TYR223     -0.1227
     53  CA        15.7080   41.2500   22.5220 C.3   223  TYR223      0.1736
     54  C         15.0050   42.3200   23.3570 C.2   223  TYR223      0.2595
     55  O         15.1270   42.3500   24.5800 O.2   223  TYR223     -0.2718
     56  CB        17.2250   41.3140   22.7450 C.3   223  TYR223      0.0548
     57  CG        17.9610   40.0480   22.3510 C.ar  223  TYR223     -0.0200
     58  CD1       18.4510   39.8720   21.0560 C.ar  223  TYR223     -0.0009
     59  CD2       18.1420   39.0110   23.2710 C.ar  223  TYR223     -0.0009
     60  CE1       19.1040   38.6860   20.6840 C.ar  223  TYR223      0.0417
     61  CE2       18.7890   37.8230   22.9100 C.ar  223  TYR223      0.0417
     62  CZ        19.2650   37.6690   21.6160 C.ar  223  TYR223      0.1957
     63  OH        19.8880   36.4970   21.2480 O.3   223  TYR223     -0.2866
     64  N         14.2670   43.1980   22.6770 N.am  224  ASP224     -0.1974
     65  CA        13.5110   44.2590   23.3380 C.3   224  ASP224      0.1709
     66  C         12.0470   43.8310   23.3130 C.2   224  ASP224      0.2293
     67  O         11.1960   44.4790   22.7030 O.2   224  ASP224     -0.2864
     68  CB        13.7100   45.6020   22.6120 C.3   224  ASP224      0.1436
     69  CG        13.1900   45.5920   21.1740 C.2   224  ASP224      0.3671
     70  OD1       13.4440   44.6100   20.4420 O.co2 224  ASP224     -0.2456
     71  OD2       12.5390   46.5840   20.7740 O.co2 224  ASP224     -0.2456
     72  N         15.4380   41.7010   31.1650 N.3   267  HIS267     -0.1241
     73  CA        14.7830   42.9590   30.8320 C.3   267  HIS267      0.1621
     74  C         13.7140   42.7740   29.7620 C.2   267  HIS267      0.2264
     75  O         13.6300   41.7250   29.1310 O.2   267  HIS267     -0.2867
     76  CB        15.8280   43.9300   30.2870 C.3   267  HIS267      0.0745
     77  CG        16.6880   43.3370   29.2100 C.ar  267  HIS267      0.0817
     78  ND1       17.9330   42.7990   29.4620 N.ar  267  HIS267     -0.2268
     79  CD2       16.4620   43.1520   27.8870 C.ar  267  HIS267      0.1154
     80  CE1       18.4360   42.3100   28.3420 C.ar  267  HIS267      0.1986
     81  NE2       17.5630   42.5100   27.3700 N.ar  267  HIS267     -0.2212
     82  N         19.6450   47.2550   30.7260 N.3   310  PHE310     -0.1241
     83  CA        20.7440   46.3970   30.3150 C.3   310  PHE310      0.1605
     84  C         21.9020   47.2510   29.8100 C.2   310  PHE310      0.2264
     85  O         21.7870   47.9320   28.7870 O.2   310  PHE310     -0.2867
     86  CB        20.3020   45.4170   29.2160 C.3   310  PHE310      0.0534
     87  CG        21.4320   44.5850   28.6590 C.ar  310  PHE310     -0.0203
     88  CD1       22.1370   45.0070   27.5330 C.ar  310  PHE310     -0.0042
     89  CD2       21.8280   43.4100   29.2960 C.ar  310  PHE310     -0.0042
     90  CE1       23.2290   44.2710   27.0470 C.ar  310  PHE310     -0.0003
     91  CE2       22.9160   42.6660   28.8240 C.ar  310  PHE310     -0.0003
     92  CZ        23.6180   43.1000   27.6950 C.ar  310  PHE310     -0.0000
     93  N         21.4170   50.7040   28.3170 N.3   313  PHE313     -0.1241
     94  CA        20.5840   50.9020   27.1370 C.3   313  PHE313      0.1605
     95  C         19.1430   51.1560   27.5680 C.2   313  PHE313      0.2264
     96  O         18.4410   50.2380   27.9920 O.2   313  PHE313     -0.2867
     97  CB        20.6390   49.6790   26.2170 C.3   313  PHE313      0.0534
     98  CG        22.0120   49.3830   25.6780 C.ar  313  PHE313     -0.0203
     99  CD1       22.8110   50.4040   25.1730 C.ar  313  PHE313     -0.0042
    100  CD2       22.5030   48.0830   25.6620 C.ar  313  PHE313     -0.0042
    101  CE1       24.0810   50.1330   24.6610 C.ar  313  PHE313     -0.0003
    102  CE2       23.7710   47.8000   25.1530 C.ar  313  PHE313     -0.0003
    103  CZ        24.5620   48.8280   24.6520 C.ar  313  PHE313     -0.0000
    104  N         16.5010   51.4000   26.0500 N.3   315  SER315     -0.1202
    105  CA        15.4610   50.6470   25.3590 C.3   315  SER315      0.2020
    106  C         15.2490   49.2740   25.9910 C.2   315  SER315      0.2618
    107  O         14.3440   48.5380   25.6010 O.2   315  SER315     -0.2717
    108  CB        15.8100   50.4900   23.8730 C.3   315  SER315      0.2103
    109  OG        17.0360   49.8020   23.7010 O.3   315  SER315     -0.2182
    110  N         16.0730   48.9410   26.9790 N.am  316  LEU316     -0.1979
    111  CA        15.9660   47.6490   27.6480 C.3   316  LEU316      0.1596
    112  C         15.8440   47.7720   29.1660 C.2   316  LEU316      0.2287
    113  O         16.7540   47.3910   29.8980 O.2   316  LEU316     -0.2864
    114  CB        17.1830   46.7860   27.3070 C.3   316  LEU316      0.0297
    115  CG        17.4610   46.5670   25.8200 C.3   316  LEU316      0.0022
    116  CD1       18.7860   45.8440   25.6470 C.3   316  LEU316      0.0001
    117  CD2       16.3160   45.7710   25.1970 C.3   316  LEU316      0.0001
    118  N         17.7080   29.2890   26.3210 N.3   354  ARG354     -0.1245
    119  CA        19.0490   29.8590   26.3120 C.3   354  ARG354      0.1563
    120  C         18.8230   31.1910   27.0340 C.2   354  ARG354      0.2260
    121  O         18.1640   32.0870   26.5050 O.2   354  ARG354     -0.2867
    122  CB        19.5350   30.0870   24.8790 C.3   354  ARG354      0.0307
    123  CG        20.8650   30.8230   24.7740 C.3   354  ARG354      0.0489
    124  CD        20.6700   32.3220   24.9820 C.3   354  ARG354      0.2205
    125  NE        21.8500   33.0680   24.5900 N.pl3 354  ARG354     -0.0865
    126  CZ        21.8720   34.3720   24.3580 C.cat 354  ARG354      0.5346
    127  NH1       20.7640   35.0930   24.4780 N.pl3 354  ARG354      0.1354
    128  NH2       23.0080   34.9520   23.9940 N.pl3 354  ARG354      0.1354
    129  N         19.4510   34.6680   28.0480 N.3   356  ASN356     -0.1225
    130  CA        20.1600   35.8870   27.6690 C.3   356  ASN356      0.1785
    131  C         20.5370   36.6970   28.9070 C.2   356  ASN356      0.2597
    132  O         19.7610   36.7800   29.8590 O.2   356  ASN356     -0.2718
    133  CB        19.2730   36.7440   26.7540 C.3   356  ASN356      0.1169
    134  CG        19.8660   38.1210   26.4770 C.2   356  ASN356      0.2627
    135  OD1       19.3050   39.1410   26.8860 O.2   356  ASN356     -0.2716
    136  ND2       21.0040   38.1550   25.7840 N.am  356  ASN356     -0.0877
    137  N         21.7360   37.2760   28.8840 N.am  357  ALA357     -0.1979
    138  CA        22.2430   38.1160   29.9730 C.3   357  ALA357      0.1597
    139  C         21.9320   37.5680   31.3660 C.2   357  ALA357      0.2287
    140  O         21.6610   38.3290   32.2940 O.2   357  ALA357     -0.2864
    141  CB        21.6680   39.5250   29.8320 C.3   357  ALA357      0.0319
    142  N         23.0950   39.0320   34.9590 N.3   360  TYR360     -0.1241
    143  CA        22.5520   40.2730   35.5040 C.3   360  TYR360      0.1605
    144  C         21.2110   40.1750   36.2190 C.2   360  TYR360      0.2264
    145  O         20.8590   41.0720   36.9860 O.2   360  TYR360     -0.2867
    146  CB        22.4450   41.3260   34.3970 C.3   360  TYR360      0.0534
    147  CG        23.7590   41.6500   33.7230 C.ar  360  TYR360     -0.0201
    148  CD1       24.0010   41.2650   32.4080 C.ar  360  TYR360     -0.0009
    149  CD2       24.7650   42.3310   34.4060 C.ar  360  TYR360     -0.0009
    150  CE1       25.2140   41.5490   31.7830 C.ar  360  TYR360      0.0417
    151  CE2       25.9840   42.6200   33.7920 C.ar  360  TYR360      0.0417
    152  CZ        26.2010   42.2260   32.4810 C.ar  360  TYR360      0.1957
    153  OH        27.4030   42.5020   31.8660 O.3   360  TYR360     -0.2866
    154  N         23.6450   32.3740   29.2130 N.3   396  GLU396     -0.1245
    155  CA        24.6290   33.1140   28.4400 C.3   396  GLU396      0.1567
    156  C         25.6550   33.6560   29.4250 C.2   396  GLU396      0.2260
    157  O         25.3030   34.3460   30.3820 O.2   396  GLU396     -0.2867
    158  CB        24.0040   34.2950   27.6830 C.3   396  GLU396      0.0388
    159  CG        25.0490   35.0510   26.8430 C.3   396  GLU396      0.1160
    160  CD        24.5900   36.4080   26.3290 C.2   396  GLU396      0.3649
    161  OE1       25.3500   37.0270   25.5520 O.co2 396  GLU396     -0.2457
    162  OE2       23.4890   36.8630   26.6980 O.co2 396  GLU396     -0.2457
    163  N         30.0370   34.7730   29.1790 N.3   398  TRP398     -0.1241
    164  CA        31.2640   34.8010   28.3920 C.3   398  TRP398      0.1605
    165  C         32.5270   34.3850   29.1470 C.2   398  TRP398      0.2264
    166  O         33.5990   34.2730   28.5530 O.2   398  TRP398     -0.2867
    167  CB        31.4400   36.2030   27.7920 C.3   398  TRP398      0.0550
    168  CG        30.3290   36.6020   26.8370 C.ar  398  TRP398      0.0003
    169  CD1       28.9800   36.5000   27.0530 C.ar  398  TRP398      0.0946
    170  CD2       30.4810   37.1940   25.5370 C.ar  398  TRP398      0.0152
    171  NE1       28.2860   36.9930   25.9700 N.ar  398  TRP398     -0.2442
    172  CE2       29.1820   37.4250   25.0270 C.ar  398  TRP398      0.0810
    173  CE3       31.5900   37.5520   24.7550 C.ar  398  TRP398      0.0012
    174  CZ2       28.9620   38.0000   23.7670 C.ar  398  TRP398      0.0191
    175  CZ3       31.3690   38.1260   23.5010 C.ar  398  TRP398      0.0001
    176  CH2       30.0650   38.3420   23.0220 C.ar  398  TRP398      0.0015
    177  N         25.7530   35.4130   16.8580 N.3   471  HIS471     -0.1226
    178  CA        25.2370   36.7510   16.5820 C.3   471  HIS471      0.1752
    179  C         25.8650   37.9080   17.3580 C.2   471  HIS471      0.2596
    180  O         25.5220   39.0640   17.1130 O.2   471  HIS471     -0.2718
    181  CB        23.7230   36.7700   16.8030 C.3   471  HIS471      0.0759
    182  CG        23.3230   36.4910   18.2170 C.ar  471  HIS471      0.0818
    183  ND1       23.6930   35.3400   18.8790 N.ar  471  HIS471     -0.2268
    184  CD2       22.6030   37.2200   19.1020 C.ar  471  HIS471      0.1154
    185  CE1       23.2170   35.3720   20.1120 C.ar  471  HIS471      0.1986
    186  NE2       22.5520   36.5030   20.2720 N.ar  471  HIS471     -0.2212
    187  N         26.7770   37.6150   18.2800 N.am  472  ASP472     -0.1974
    188  CA        27.4070   38.6710   19.0720 C.3   472  ASP472      0.1709
    189  C         28.9090   38.8540   18.8640 C.2   472  ASP472      0.2293
    190  O         29.5330   39.6720   19.5430 O.2   472  ASP472     -0.2864
    191  CB        27.1370   38.4470   20.5630 C.3   472  ASP472      0.1436
    192  CG        25.6830   38.6400   20.9230 C.2   472  ASP472      0.3671
    193  OD1       25.0960   39.6450   20.4730 O.co2 472  ASP472     -0.2456
    194  OD2       25.1290   37.7950   21.6570 O.co2 472  ASP472     -0.2456
    195  N         28.4680   42.8740   14.7460 N.3   516  ASP516     -0.1239
    196  CA        27.0290   43.1070   14.7620 C.3   516  ASP516      0.1674
    197  C         26.8160   44.4760   14.1020 C.2   516  ASP516      0.2266
    198  O         27.4630   45.4500   14.4800 O.2   516  ASP516     -0.2867
    199  CB        26.5630   43.1230   16.2260 C.3   516  ASP516      0.1410
    200  CG        25.0820   43.4030   16.3820 C.2   516  ASP516      0.3668
    201  OD1       24.6260   43.4820   17.5440 O.co2 516  ASP516     -0.2456
    202  OD2       24.3740   43.5420   15.3640 O.co2 516  ASP516     -0.2456
    203  N         25.1150   38.9630   11.0100 N.3   520  ARG520     -0.1245
    204  CA        23.7600   38.4310   10.8730 C.3   520  ARG520      0.1563
    205  C         23.2460   38.5500    9.4330 C.2   520  ARG520      0.2260
    206  O         22.0860   38.8910    9.1990 O.2   520  ARG520     -0.2867
    207  CB        22.8260   39.1800   11.8340 C.3   520  ARG520      0.0307
    208  CG        23.3170   39.1470   13.2860 C.3   520  ARG520      0.0489
    209  CD        22.6560   40.2090   14.1610 C.3   520  ARG520      0.2205
    210  NE        23.1710   40.1770   15.5290 N.pl3 520  ARG520     -0.0865
    211  CZ        22.6630   40.8750   16.5420 C.cat 520  ARG520      0.5346
    212  NH1       21.6170   41.6710   16.3480 N.pl3 520  ARG520      0.1354
    213  NH2       23.1980   40.7750   17.7550 N.pl3 520  ARG520      0.1354
@<TRIPOS>BOND
     1   206   205    2
     2   205   204    1
     3    27    26    2
     4    13    14    1
     5    16    15    2
     6   204   203    1
     7   204   207    1
     8    26    28   am
     9    26    25    1
    10    15    14    1
    11    15    21   am
    12    14    17    1
    13    22    21    1
    14    22    25    1
    15    22    23    1
    16   207   208    1
    17    24    23    2
    18    23    29   am
    19    17    18    1
    20   208   209    1
    21    29    30    1
    22    31    32    2
    23    31    30    1
    24    18    19   ar
    25    18    20   ar
    26   197   198    2
    27   197   196    1
    28   209   210    1
    29    30    33    1
    30   195   196    1
    31   196   199    1
    32     1     2    1
    33   202   200   ar
    34    37    38    2
    35    37    36    1
    36   210   211    2
    37    33    34    1
    38    42    43    1
    39     4     3    2
    40   199   200    1
    41    36    35    1
    42    36    39    1
    43   212   211    1
    44     2     5    1
    45     2     3    1
    46   200   201   ar
    47     5     6    1
    48   211   213    1
    49   178   181    1
    50   178   177    1
    51   178   179    1
    52   181   182    1
    53    43    46    1
    54    43    44    1
    55   180   179    2
    56    39    41    1
    57    39    40    1
    58   179   187   am
    59    46    47    1
    60     6     7   ar
    61     6     8   ar
    62    44    45    2
    63    48    47   ar
    64    48    50   ar
    65     7     9   ar
    66   182   183   ar
    67   182   184   ar
    68   187   188    1
    69    47    49   ar
    70    50    51   ar
    71   189   188    1
    72   189   190    2
    73   183   185   ar
    74     8    10   ar
    75   188   191    1
    76   184   186   ar
    77     9    11   ar
    78    49    51   ar
    79   185   186   ar
    80    10    11   ar
    81    11    12    1
    82    70    69   ar
    83   193   192   ar
    84   191   192    1
    85    60    58   ar
    86    60    62   ar
    87    71    69   ar
    88   192   194   ar
    89    58    57   ar
    90    52    53    1
    91    69    68    1
    92    63    62    1
    93    62    61   ar
    94    57    56    1
    95    57    59   ar
    96    53    56    1
    97    53    54    1
    98    68    65    1
    99    64    65    1
   100    64    54   am
   101    67    66    2
   102    61    59   ar
   103   176   175   ar
   104   176   174   ar
   105    66    65    1
   106    54    55    2
   107   175   173   ar
   108   109   108    1
   109   174   172   ar
   110   108   105    1
   111   128   126    1
   112   126   127    1
   113   126   125    2
   114   125   124    1
   115   103   101   ar
   116   103   102   ar
   117   101    99   ar
   118   173   170   ar
   119   123   122    1
   120   123   124    1
   121   122   119    1
   122   172   170   ar
   123   172   171   ar
   124   102   100   ar
   125    99    98   ar
   126   117   115    1
   127   105   106    1
   128   105   104    1
   129   170   168   ar
   130   161   160   ar
   131   107   106    2
   132   116   115    1
   133   100    98   ar
   134    98    97    1
   135   136   134   am
   136   115   114    1
   137   171   169   ar
   138   106   110   am
   139    97    94    1
   140   119   118    1
   141   119   120    1
   142   160   162   ar
   143   160   159    1
   144   134   133    1
   145   134   135    2
   146   121   120    2
   147   133   130    1
   148   168   169   ar
   149   168   167    1
   150   159   158    1
   151   110   111    1
   152    90    88   ar
   153    90    92   ar
   154    94    95    1
   155    94    93    1
   156   114   111    1
   157    81    79   ar
   158    81    80   ar
   159    88    87   ar
   160    95    96    2
   161   111   112    1
   162   130   129    1
   163   130   131    1
   164   158   155    1
   165    92    91   ar
   166   167   164    1
   167    79    77   ar
   168    80    78   ar
   169   164   165    1
   170   164   163    1
   171   155   154    1
   172   155   156    1
   173   166   165    2
   174    87    86    1
   175    87    89   ar
   176    85    84    2
   177    91    89   ar
   178   137   131   am
   179   137   138    1
   180   131   132    2
   181    75    74    2
   182   112   113    2
   183    77    78   ar
   184    77    76    1
   185    86    83    1
   186   156   157    2
   187    74    73    1
   188    84    83    1
   189   141   138    1
   190   138   139    1
   191    76    73    1
   192    83    82    1
   193    73    72    1
   194   139   140    2
   195   150   148   ar
   196   150   152   ar
   197   153   152    1
   198   148   147   ar
   199   152   151   ar
   200   147   146    1
   201   147   149   ar
   202   151   149   ar
   203   146   143    1
   204   142   143    1
   205   143   144    1
   206   144   145    2
