@<TRIPOS>MOLECULE
tmp/2d0fA02.pdb
 117 117 0 0 0
SMALL
GASTEIGER

@<TRIPOS>ATOM
      1  N         54.2390   10.1520   35.4200 N.3     9  TRP9       -0.1227
      2  CA        53.0830   10.9650   35.0520 C.3     9  TRP9        0.1737
      3  C         52.4160   10.5850   33.7260 C.2     9  TRP9        0.2595
      4  O         51.1950   10.6320   33.6120 O.2     9  TRP9       -0.2718
      5  CB        53.4940   12.4350   34.9820 C.3     9  TRP9        0.0564
      6  CG        53.7610   13.0770   36.3030 C.ar    9  TRP9        0.0003
      7  CD1       54.0760   12.4550   37.4800 C.ar    9  TRP9        0.0946
      8  CD2       53.7800   14.4810   36.5740 C.ar    9  TRP9        0.0152
      9  NE1       54.2910   13.3870   38.4660 N.ar    9  TRP9       -0.2442
     10  CE2       54.1160   14.6400   37.9370 C.ar    9  TRP9        0.0810
     11  CE3       53.5450   15.6230   35.7960 C.ar    9  TRP9        0.0012
     12  CZ2       54.2230   15.8980   38.5400 C.ar    9  TRP9        0.0191
     13  CZ3       53.6510   16.8750   36.3970 C.ar    9  TRP9        0.0001
     14  CH2       53.9880   17.0010   37.7560 C.ar    9  TRP9        0.0015
     15  N         53.2160   10.2200   32.7280 N.am   10  ASN10      -0.1974
     16  CA        52.6800    9.8660   31.4150 C.3    10  ASN10       0.1688
     17  C         51.7640    8.6480   31.4070 C.2    10  ASN10       0.2292
     18  O         50.9550    8.4870   30.4950 O.2    10  ASN10      -0.2864
     19  CB        53.8210    9.6510   30.4140 C.3    10  ASN10       0.1181
     20  CG        54.5330   10.9390   30.0570 C.2    10  ASN10       0.2629
     21  OD1       55.5040   10.9350   29.2990 O.2    10  ASN10      -0.2716
     22  ND2       54.0550   12.0530   30.5990 N.am   10  ASN10      -0.0877
     23  N         49.7120    7.9730   33.9380 N.3    12  LEU12      -0.1231
     24  CA        48.5530    8.3150   34.7520 C.3    12  LEU12       0.1693
     25  C         47.3980    8.8870   33.9410 C.2    12  LEU12       0.2592
     26  O         47.6090    9.5970   32.9570 O.2    12  LEU12      -0.2718
     27  CB        48.9410    9.3490   35.8100 C.3    12  LEU12       0.0284
     28  CG        50.0820    9.0170   36.7700 C.3    12  LEU12       0.0019
     29  CD1       50.3170   10.2150   37.6860 C.3    12  LEU12       0.0001
     30  CD2       49.7380    7.7770   37.5810 C.3    12  LEU12       0.0001
     31  N         46.1780    8.5640   34.3560 N.am   13  PHE13      -0.1976
     32  CA        44.9930    9.1120   33.7140 C.3    13  PHE13       0.1639
     33  C         43.6880    8.7990   34.4080 C.2    13  PHE13       0.2290
     34  O         43.4750    7.7010   34.9240 O.2    13  PHE13      -0.2864
     35  CB        44.8350    8.6620   32.2600 C.3    13  PHE13       0.0560
     36  CG        43.7070    9.3750   31.5430 C.ar   13  PHE13      -0.0200
     37  CD1       43.9120   10.6330   30.9770 C.ar   13  PHE13      -0.0042
     38  CD2       42.4230    8.8310   31.5140 C.ar   13  PHE13      -0.0042
     39  CE1       42.8530   11.3440   30.3960 C.ar   13  PHE13      -0.0003
     40  CE2       41.3570    9.5330   30.9360 C.ar   13  PHE13      -0.0003
     41  CZ        41.5740   10.7920   30.3770 C.ar   13  PHE13      -0.0000
     42  N         44.2930    5.0460   36.0540 N.3    37  ARG37      -0.1245
     43  CA        45.2380    4.3320   35.2090 C.3    37  ARG37       0.1563
     44  C         46.6680    4.7430   35.5530 C.2    37  ARG37       0.2260
     45  O         46.9260    5.8950   35.8880 O.2    37  ARG37      -0.2867
     46  CB        44.9780    4.6440   33.7280 C.3    37  ARG37       0.0307
     47  CG        45.7670    3.7590   32.7610 C.3    37  ARG37       0.0489
     48  CD        45.8810    4.3650   31.3610 C.3    37  ARG37       0.2205
     49  NE        46.8160    5.4880   31.3280 N.pl3  37  ARG37      -0.0865
     50  CZ        47.2270    6.0940   30.2190 C.cat  37  ARG37       0.5346
     51  NH1       46.7850    5.6910   29.0320 N.pl3  37  ARG37       0.1354
     52  NH2       48.0880    7.1040   30.2940 N.pl3  37  ARG37       0.1354
     53  N         46.7280   13.9960   41.3380 N.3   103  TYR103     -0.1241
     54  CA        46.0090   14.0470   40.0730 C.3   103  TYR103      0.1605
     55  C         44.5500   14.4540   40.2710 C.2   103  TYR103      0.2264
     56  O         43.8460   13.8880   41.1070 O.2   103  TYR103     -0.2867
     57  CB        46.0850   12.6680   39.3960 C.3   103  TYR103      0.0534
     58  CG        45.6850   12.6380   37.9310 C.ar  103  TYR103     -0.0201
     59  CD1       44.3630   12.8560   37.5360 C.ar  103  TYR103     -0.0009
     60  CD2       46.6350   12.3960   36.9410 C.ar  103  TYR103     -0.0009
     61  CE1       44.0010   12.8310   36.1830 C.ar  103  TYR103      0.0417
     62  CE2       46.2860   12.3690   35.5920 C.ar  103  TYR103      0.0417
     63  CZ        44.9700   12.5870   35.2210 C.ar  103  TYR103      0.1957
     64  OH        44.6350   12.5560   33.8890 O.3   103  TYR103     -0.2866
     65  N         41.9230   12.7470   26.2340 N.3   557  MET557     -0.1230
     66  CA        43.3290   12.6750   26.6310 C.3   557  MET557      0.1702
     67  C         44.2300   13.3860   25.6260 C.2   557  MET557      0.2593
     68  O         44.1790   13.1030   24.4280 O.2   557  MET557     -0.2718
     69  CB        43.7810   11.2150   26.7540 C.3   557  MET557      0.0401
     70  CG        45.2550   11.0510   27.1360 C.3   557  MET557      0.0596
     71  SD        45.8620    9.3580   26.9050 S.3   557  MET557     -0.1393
     72  CE        44.8970    8.4790   28.1370 C.3   557  MET557      0.0692
     73  N         45.0520   14.3080   26.1160 N.am  558  THR558     -0.1939
     74  CA        45.9760   15.0340   25.2520 C.3   558  THR558      0.2028
     75  C         47.0640   14.0550   24.8160 C.2   558  THR558      0.2642
     76  O         47.5580   13.2780   25.6280 O.2   558  THR558     -0.2714
     77  CB        46.6170   16.2230   26.0030 C.3   558  THR558      0.1808
     78  OG1       45.5930   17.1520   26.3800 O.3   558  THR558     -0.2208
     79  CG2       47.6410   16.9360   25.1190 C.3   558  THR558      0.0379
     80  N         47.4300   14.0830   23.5360 N.am  559  LEU559     -0.1977
     81  CA        48.4570   13.1750   23.0270 C.3   559  LEU559      0.1596
     82  C         49.7020   13.8860   22.5040 C.2   559  LEU559      0.2287
     83  O         50.8210   13.4220   22.7170 O.2   559  LEU559     -0.2864
     84  CB        47.8790   12.2910   21.9150 C.3   559  LEU559      0.0297
     85  CG        46.7380   11.3510   22.3150 C.3   559  LEU559      0.0022
     86  CD1       46.2210   10.6150   21.0810 C.3   559  LEU559      0.0001
     87  CD2       47.2320   10.3620   23.3720 C.3   559  LEU559      0.0001
     88  N         50.9440    8.6580   19.0100 N.3   595  PRO595     -0.2116
     89  CA        51.1030    7.6510   20.0650 C.3   595  PRO595      0.1372
     90  C         49.7840    7.0050   20.4910 C.2   595  PRO595      0.2244
     91  O         49.3530    7.1490   21.6340 O.2   595  PRO595     -0.2868
     92  CB        51.7460    8.4490   21.1910 C.3   595  PRO595      0.0268
     93  CG        51.0670    9.7680   21.0640 C.3   595  PRO595      0.0207
     94  CD        51.0990   10.0180   19.5620 C.3   595  PRO595      0.0892
     95  N         49.1900    4.2120   21.3340 N.3   597  TRP597     -0.1227
     96  CA        49.3510    3.2330   22.3970 C.3   597  TRP597      0.1737
     97  C         48.7920    3.7850   23.7110 C.2   597  TRP597      0.2595
     98  O         48.4330    3.0190   24.6080 O.2   597  TRP597     -0.2718
     99  CB        50.8270    2.8470   22.5780 C.3   597  TRP597      0.0564
    100  CG        51.7460    3.9900   22.9150 C.ar  597  TRP597      0.0003
    101  CD1       52.4200    4.7900   22.0380 C.ar  597  TRP597      0.0946
    102  CD2       52.0900    4.4540   24.2260 C.ar  597  TRP597      0.0152
    103  NE1       53.1680    5.7230   22.7220 N.ar  597  TRP597     -0.2442
    104  CE2       52.9810    5.5400   24.0660 C.ar  597  TRP597      0.0810
    105  CE3       51.7310    4.0580   25.5220 C.ar  597  TRP597      0.0012
    106  CZ2       53.5190    6.2360   25.1550 C.ar  597  TRP597      0.0191
    107  CZ3       52.2680    4.7530   26.6060 C.ar  597  TRP597      0.0001
    108  CH2       53.1520    5.8290   26.4120 C.ar  597  TRP597      0.0015
    109  N         48.7140    5.1120   23.8160 N.am  598  GLN598     -0.1979
    110  CA        48.1850    5.7690   25.0160 C.3   598  GLN598      0.1601
    111  C         46.6860    5.5150   25.1660 C.2   598  GLN598      0.2287
    112  O         46.1430    5.5940   26.2680 O.2   598  GLN598     -0.2864
    113  CB        48.4320    7.2830   24.9590 C.3   598  GLN598      0.0394
    114  CG        49.8200    7.7310   25.4020 C.3   598  GLN598      0.0908
    115  CD        49.9870    7.7630   26.9180 C.2   598  GLN598      0.2608
    116  OE1       51.0040    8.2380   27.4280 O.2   598  GLN598     -0.2717
    117  NE2       48.9950    7.2590   27.6400 N.am  598  GLN598     -0.0878
@<TRIPOS>BOND
     1    88    94    1
     2    88    89    1
     3    94    93    1
     4    89    90    1
     5    89    92    1
     6    90    91    2
     7    93    92    1
     8    86    85    1
     9    95    96    1
    10    84    85    1
    11    84    81    1
    12   101   103   ar
    13   101   100   ar
    14    85    87    1
    15    96    99    1
    16    96    97    1
    17    82    83    2
    18    82    81    1
    19    99   100    1
    20   103   104   ar
    21   100   102   ar
    22    81    80    1
    23    80    75   am
    24    97   109   am
    25    97    98    2
    26   109   110    1
    27   104   102   ar
    28   104   106   ar
    29   102   105   ar
    30    68    67    2
    31    75    74    1
    32    75    76    2
    33   113   110    1
    34   113   114    1
    35   110   111    1
    36    79    77    1
    37   106   108   ar
    38   111   112    2
    39    74    77    1
    40    74    73    1
    41   114   115    1
    42   105   107   ar
    43    67    73   am
    44    67    66    1
    45    77    78    1
    46    65    66    1
    47   108   107   ar
    48    66    69    1
    49    69    70    1
    50    71    70    1
    51    71    72    1
    52   115   116    2
    53   115   117   am
    54    51    50    1
    55    21    20    2
    56    20    19    1
    57    20    22   am
    58    50    52    1
    59    50    49    2
    60    41    39   ar
    61    41    40   ar
    62    39    37   ar
    63    19    16    1
    64    18    17    2
    65    40    38   ar
    66    37    36   ar
    67    49    48    1
    68    48    47    1
    69    17    16    1
    70    16    15    1
    71    38    36   ar
    72    36    35    1
    73    35    32    1
    74    15     3   am
    75    47    46    1
    76    26    25    2
    77     4     3    2
    78    32    31    1
    79    32    33    1
    80     3     2    1
    81    46    43    1
    82    64    63    1
    83    23    24    1
    84    25    31   am
    85    25    24    1
    86    33    34    2
    87    24    27    1
    88     5     2    1
    89     5     6    1
    90     2     1    1
    91    43    44    1
    92    43    42    1
    93    63    62   ar
    94    63    61   ar
    95    44    45    2
    96    62    60   ar
    97    11    13   ar
    98    11     8   ar
    99    27    28    1
   100    61    59   ar
   101     6     8   ar
   102     6     7   ar
   103    13    14   ar
   104     8    10   ar
   105    28    30    1
   106    28    29    1
   107    60    58   ar
   108     7     9   ar
   109    59    58   ar
   110    14    12   ar
   111    58    57    1
   112    10     9   ar
   113    10    12   ar
   114    57    54    1
   115    54    55    1
   116    54    53    1
   117    55    56    2
