@<TRIPOS>MOLECULE
tmp/2d0gA00.pdb
 131 126 0 0 0
SMALL
GASTEIGER

@<TRIPOS>ATOM
      1  N         37.0140   15.5140   49.6700 N.3    51  TRP51      -0.1241
      2  CA        36.4310   16.4650   50.5900 C.3    51  TRP51       0.1605
      3  C         34.9240   16.2860   50.4720 C.2    51  TRP51       0.2264
      4  O         34.3660   16.3250   49.3750 O.2    51  TRP51      -0.2867
      5  CB        36.8380   17.8860   50.2040 C.3    51  TRP51       0.0550
      6  CG        36.1220   18.9610   50.9660 C.ar   51  TRP51       0.0003
      7  CD1       34.9110   19.5170   50.6600 C.ar   51  TRP51       0.0946
      8  CD2       36.5730   19.6130   52.1610 C.ar   51  TRP51       0.0152
      9  NE1       34.5810   20.4750   51.5880 N.ar   51  TRP51      -0.2442
     10  CE2       35.5810   20.5550   52.5210 C.ar   51  TRP51       0.0810
     11  CE3       37.7170   19.4940   52.9630 C.ar   51  TRP51       0.0012
     12  CZ2       35.6980   21.3750   53.6500 C.ar   51  TRP51       0.0191
     13  CZ3       37.8330   20.3090   54.0860 C.ar   51  TRP51       0.0001
     14  CH2       36.8270   21.2390   54.4190 C.ar   51  TRP51       0.0015
     15  N         31.2910   17.7410   51.4640 N.3    53  THR53      -0.1218
     16  CA        30.5960   18.9250   51.9380 C.3    53  THR53       0.1862
     17  C         29.6940   18.5920   53.1200 C.2    53  THR53       0.2287
     18  O         29.2330   19.4860   53.8270 O.2    53  THR53      -0.2866
     19  CB        29.7400   19.5450   50.8240 C.3    53  THR53       0.1770
     20  OG1       28.8500   18.5510   50.3000 O.3    53  THR53      -0.2211
     21  CG2       30.6270   20.0760   49.7050 C.3    53  THR53       0.0375
     22  N         38.1920   16.0060   55.0270 N.3    58  PHE58      -0.1241
     23  CA        38.7460   15.1470   53.9910 C.3    58  PHE58       0.1605
     24  C         38.5860   13.6990   54.4200 C.2    58  PHE58       0.2264
     25  O         38.6010   13.3980   55.6100 O.2    58  PHE58      -0.2867
     26  CB        40.2320   15.4490   53.7680 C.3    58  PHE58       0.0534
     27  CG        40.4940   16.6000   52.8300 C.ar   58  PHE58      -0.0203
     28  CD1       41.1980   17.7210   53.2600 C.ar   58  PHE58      -0.0042
     29  CD2       40.0610   16.5490   51.5060 C.ar   58  PHE58      -0.0042
     30  CE1       41.4690   18.7660   52.3880 C.ar   58  PHE58      -0.0003
     31  CE2       40.3310   17.5940   50.6280 C.ar   58  PHE58      -0.0003
     32  CZ        41.0340   18.7010   51.0690 C.ar   58  PHE58      -0.0000
     33  N         34.4580   16.2600   46.4580 N.3    89  TYR89      -0.1241
     34  CA        35.5260   16.5780   45.5190 C.3    89  TYR89       0.1605
     35  C         36.6730   15.6480   45.8580 C.2    89  TYR89       0.2264
     36  O         36.9680   15.4420   47.0330 O.2    89  TYR89      -0.2867
     37  CB        35.9940   18.0230   45.6760 C.3    89  TYR89       0.0534
     38  CG        34.8790   19.0290   45.7740 C.ar   89  TYR89      -0.0201
     39  CD1       34.3890   19.4370   47.0140 C.ar   89  TYR89      -0.0009
     40  CD2       34.3250   19.5920   44.6250 C.ar   89  TYR89      -0.0009
     41  CE1       33.3770   20.3910   47.1020 C.ar   89  TYR89       0.0417
     42  CE2       33.3160   20.5430   44.7010 C.ar   89  TYR89       0.0417
     43  CZ        32.8500   20.9400   45.9360 C.ar   89  TYR89       0.1957
     44  OH        31.8720   21.9010   46.0090 O.3    89  TYR89      -0.2866
     45  N         40.7440   13.7710   44.6990 N.3    91  ARG91      -0.1245
     46  CA        42.0510   13.8130   44.0590 C.3    91  ARG91       0.1563
     47  C         42.7300   12.5010   44.4540 C.2    91  ARG91       0.2260
     48  O         42.2930   11.8280   45.3950 O.2    91  ARG91      -0.2867
     49  CB        42.8700   14.9920   44.5890 C.3    91  ARG91       0.0307
     50  CG        43.1610   14.9150   46.0800 C.3    91  ARG91       0.0489
     51  CD        43.9120   16.1400   46.5660 C.3    91  ARG91       0.2205
     52  NE        43.1300   17.3530   46.3700 N.pl3  91  ARG91      -0.0865
     53  CZ        42.9860   18.3060   47.2860 C.cat  91  ARG91       0.5346
     54  NH1       43.5760   18.1870   48.4690 N.pl3  91  ARG91       0.1354
     55  NH2       42.2430   19.3760   47.0230 N.pl3  91  ARG91       0.1354
     56  N         45.1740   22.1740   45.5600 N.3   114  ASN114     -0.1225
     57  CA        44.1010   22.5740   46.4550 C.3   114  ASN114      0.1785
     58  C         42.9020   23.0610   45.6600 C.2   114  ASN114      0.2597
     59  O         41.9310   23.5660   46.2190 O.2   114  ASN114     -0.2718
     60  CB        44.5820   23.6550   47.4270 C.3   114  ASN114      0.1169
     61  CG        44.9200   24.9620   46.7380 C.2   114  ASN114      0.2627
     62  OD1       45.5140   25.8540   47.3480 O.2   114  ASN114     -0.2716
     63  ND2       44.5420   25.0900   45.4680 N.am  114  ASN114     -0.0877
     64  N         42.9820   22.9100   44.3450 N.am  115  ALA115     -0.1966
     65  CA        41.8980   23.3110   43.4670 C.3   115  ALA115      0.1728
     66  C         41.8820   22.3800   42.2570 C.2   115  ALA115      0.2616
     67  O         42.8660   21.6680   41.9970 O.2   115  ALA115     -0.2715
     68  CB        42.0880   24.7510   43.0250 C.3   115  ALA115      0.0334
     69  N         40.7650   22.3820   41.5300 N.am  116  ASP116     -0.1957
     70  CA        40.6060   21.5590   40.3400 C.3   116  ASP116      0.1840
     71  C         40.4170   20.0820   40.6100 C.2   116  ASP116      0.2622
     72  O         40.8090   19.2530   39.7950 O.2   116  ASP116     -0.2715
     73  CB        41.7970   21.7380   39.4050 C.3   116  ASP116      0.1450
     74  CG        41.8140   23.0940   38.7560 C.2   116  ASP116      0.3671
     75  OD1       42.8260   23.4370   38.1130 O.co2 116  ASP116     -0.2456
     76  OD2       40.8010   23.8090   38.8870 O.co2 116  ASP116     -0.2456
     77  N         39.8250   19.7500   41.7500 N.am  117  ASP117     -0.1971
     78  CA        39.5690   18.3550   42.0880 C.3   117  ASP117      0.1709
     79  C         38.3890   17.9090   41.2490 C.2   117  ASP117      0.2293
     80  O         37.6780   18.7460   40.6940 O.2   117  ASP117     -0.2864
     81  CB        39.2280   18.2230   43.5720 C.3   117  ASP117      0.1436
     82  CG        40.4220   18.4680   44.4540 C.2   117  ASP117      0.3671
     83  OD1       40.2280   18.8060   45.6390 O.co2 117  ASP117     -0.2456
     84  OD2       41.5570   18.3150   43.9530 O.co2 117  ASP117     -0.2456
     85  N         34.6760   16.4010   40.5020 N.3   119  TYR119     -0.1241
     86  CA        33.3920   16.6540   41.1460 C.3   119  TYR119      0.1605
     87  C         32.4760   15.4540   41.2190 C.2   119  TYR119      0.2264
     88  O         32.4290   14.6380   40.3080 O.2   119  TYR119     -0.2867
     89  CB        32.6300   17.7470   40.3870 C.3   119  TYR119      0.0534
     90  CG        33.2650   19.1150   40.3820 C.ar  119  TYR119     -0.0201
     91  CD1       32.8690   20.0920   41.3000 C.ar  119  TYR119     -0.0009
     92  CD2       34.2470   19.4450   39.4460 C.ar  119  TYR119     -0.0009
     93  CE1       33.4330   21.3680   41.2830 C.ar  119  TYR119      0.0417
     94  CE2       34.8190   20.7170   39.4190 C.ar  119  TYR119      0.0417
     95  CZ        34.4080   21.6720   40.3400 C.ar  119  TYR119      0.1957
     96  OH        34.9780   22.9290   40.3290 O.3   119  TYR119     -0.2866
     97  N         31.9090   28.4340   36.5590 N.3   402  ASN402     -0.1240
     98  CA        31.9030   27.4900   37.6700 C.3   402  ASN402      0.1653
     99  C         30.9010   27.9150   38.7400 C.2   402  ASN402      0.2266
    100  O         30.1550   27.0880   39.2600 O.2   402  ASN402     -0.2867
    101  CB        33.3130   27.3750   38.2740 C.3   402  ASN402      0.1155
    102  CG        33.3500   26.5370   39.5500 C.2   402  ASN402      0.2627
    103  OD1       32.8320   26.9420   40.5900 O.2   402  ASN402     -0.2716
    104  ND2       33.9670   25.3640   39.4710 N.am  402  ASN402     -0.0877
    105  N         28.9250   24.4730   39.1430 N.3   406  ALA406     -0.1231
    106  CA        29.6100   23.5170   40.0130 C.3   406  ALA406      0.1694
    107  C         28.8370   22.9810   41.2170 C.2   406  ALA406      0.2591
    108  O         29.3260   22.1030   41.9210 O.2   406  ALA406     -0.2718
    109  CB        30.9550   24.0940   40.4650 C.3   406  ALA406      0.0304
    110  N         27.6410   23.4920   41.4680 N.am  407  GLN407     -0.1979
    111  CA        26.8580   22.9810   42.5880 C.3   407  GLN407      0.1601
    112  C         25.6260   22.2210   42.0940 C.2   407  GLN407      0.2287
    113  O         24.7690   21.8210   42.8840 O.2   407  GLN407     -0.2864
    114  CB        26.4420   24.1190   43.5210 C.3   407  GLN407      0.0394
    115  CG        27.6130   24.8100   44.2010 C.3   407  GLN407      0.0908
    116  CD        27.1640   25.8110   45.2420 C.2   407  GLN407      0.2608
    117  OE1       26.8070   25.4410   46.3630 O.2   407  GLN407     -0.2717
    118  NE2       27.1630   27.0870   44.8760 N.am  407  GLN407     -0.0878
    119  N         38.6540   21.6470   33.5780 N.3   454  ALA454     -0.1231
    120  CA        38.7190   21.3760   35.0080 C.3   454  ALA454      0.1694
    121  C         37.8550   22.3230   35.8300 C.2   454  ALA454      0.2592
    122  O         37.6230   22.0810   37.0120 O.2   454  ALA454     -0.2718
    123  CB        40.1660   21.4350   35.4910 C.3   454  ALA454      0.0304
    124  N         37.3800   23.4040   35.2200 N.am  455  ASN455     -0.1974
    125  CA        36.5350   24.3410   35.9540 C.3   455  ASN455      0.1688
    126  C         35.1430   23.7720   36.1490 C.2   455  ASN455      0.2292
    127  O         34.3970   24.2320   37.0130 O.2   455  ASN455     -0.2864
    128  CB        36.3890   25.6820   35.2150 C.3   455  ASN455      0.1181
    129  CG        37.6720   26.4850   35.1880 C.2   455  ASN455      0.2629
    130  OD1       38.4320   26.5070   36.1650 O.2   455  ASN455     -0.2716
    131  ND2       37.9070   27.1780   34.0800 N.am  455  ASN455     -0.0877
@<TRIPOS>BOND
     1   119   120    1
     2   131   129   am
     3   120   123    1
     4   120   121    1
     5   129   128    1
     6   129   130    2
     7   128   125    1
     8   124   121   am
     9   124   125    1
    10   121   122    2
    11   125   126    1
    12   126   127    2
    13    97    98    1
    14    98   101    1
    15    98    99    1
    16    75    74   ar
    17   101   102    1
    18    99   100    2
    19    74    76   ar
    20    74    73    1
    21   105   106    1
    22    73    70    1
    23    94    92   ar
    24    94    95   ar
    25    92    90   ar
    26   104   102   am
    27   102   103    2
    28    72    71    2
    29   106   109    1
    30   106   107    1
    31    88    87    2
    32    96    95    1
    33    70    71    1
    34    70    69    1
    35    95    93   ar
    36    90    89    1
    37    90    91   ar
    38    89    86    1
    39    85    86    1
    40    71    77   am
    41    80    79    2
    42    86    87    1
    43   107   110   am
    44   107   108    2
    45    79    78    1
    46    93    91   ar
    47   110   111    1
    48    69    66   am
    49    77    78    1
    50    67    66    2
    51    78    81    1
    52   112   111    1
    53   112   113    2
    54    66    65    1
    55   111   114    1
    56    68    65    1
    57    65    64    1
    58   114   115    1
    59    81    82    1
    60    84    82   ar
    61    46    47    1
    62    46    49    1
    63    46    45    1
    64   115   116    1
    65    64    58   am
    66    82    83   ar
    67    47    48    2
    68    49    50    1
    69    40    42   ar
    70    40    38   ar
    71    42    43   ar
    72   118   116   am
    73   116   117    2
    74    63    61   am
    75    34    37    1
    76    34    35    1
    77    34    33    1
    78    56    57    1
    79    58    59    2
    80    58    57    1
    81    37    38    1
    82    38    39   ar
    83    35    36    2
    84    43    44    1
    85    43    41   ar
    86    50    51    1
    87    52    51    1
    88    52    53    2
    89    57    60    1
    90    61    62    2
    91    61    60    1
    92    39    41   ar
    93    55    53    1
    94    53    54    1
    95     4     3    2
    96     1     2    1
    97    21    19    1
    98     5     2    1
    99     5     6    1
   100    20    19    1
   101     3     2    1
   102    31    32   ar
   103    31    29   ar
   104     7     6   ar
   105     7     9   ar
   106    19    16    1
   107     6     8   ar
   108    32    30   ar
   109    15    16    1
   110    29    27   ar
   111     9    10   ar
   112    16    17    1
   113     8    10   ar
   114     8    11   ar
   115    30    28   ar
   116    10    12   ar
   117    27    28   ar
   118    27    26    1
   119    11    13   ar
   120    17    18    2
   121    12    14   ar
   122    26    23    1
   123    23    24    1
   124    23    22    1
   125    13    14   ar
   126    24    25    2
