@<TRIPOS>MOLECULE
tmp/2d0gA02.pdb
 110 108 0 0 0
SMALL
GASTEIGER

@<TRIPOS>ATOM
      1  N         58.9970   -0.6620   40.2710 N.3     3  ASN3       -0.1240
      2  CA        59.0190   -0.0710   41.5930 C.3     3  ASN3        0.1653
      3  C         60.4470    0.4190   41.7360 C.2     3  ASN3        0.2266
      4  O         61.3670   -0.3650   41.9630 O.2     3  ASN3       -0.2867
      5  CB        58.6650   -1.1180   42.6440 C.3     3  ASN3        0.1155
      6  CG        57.2080   -1.5390   42.5600 C.2     3  ASN3        0.2627
      7  OD1       56.3090   -0.7020   42.6410 O.2     3  ASN3       -0.2716
      8  ND2       56.9670   -2.8340   42.3890 N.am    3  ASN3       -0.0877
      9  N         52.0480   -0.4790   34.2320 N.3    40  LYS40      -0.1231
     10  CA        52.0160   -1.7390   34.9640 C.3    40  LYS40       0.1693
     11  C         53.1930   -1.8620   35.9380 C.2    40  LYS40       0.2592
     12  O         54.3520   -1.6670   35.5640 O.2    40  LYS40      -0.2718
     13  CB        52.0210   -2.9110   33.9820 C.3    40  LYS40       0.0285
     14  CG        52.0030   -4.2720   34.6500 C.3    40  LYS40       0.0035
     15  CD        52.0520   -5.3820   33.6220 C.3    40  LYS40       0.0206
     16  CE        51.9290   -6.7300   34.2900 C.3    40  LYS40       0.1093
     17  NZ        52.9510   -6.8830   35.3650 N.3    40  LYS40      -0.1314
     18  N         52.8750   -2.1840   37.1900 N.am   41  GLY41      -0.1957
     19  CA        53.8910   -2.3380   38.2170 C.3    41  GLY41       0.1869
     20  C         54.7270   -1.0960   38.4650 C.2    41  GLY41       0.2309
     21  O         55.8850   -1.2010   38.8660 O.2    41  GLY41      -0.2863
     22  N         53.7210    1.6540   40.5720 N.3    43  ILE43      -0.1231
     23  CA        53.5950    2.1670   41.9350 C.3    43  ILE43       0.1692
     24  C         53.5170    1.1070   43.0350 C.2    43  ILE43       0.2592
     25  O         53.5580   -0.0960   42.7660 O.2    43  ILE43      -0.2718
     26  CB        52.3580    3.0920   42.0590 C.3    43  ILE43       0.0266
     27  CG1       51.0690    2.2710   41.9420 C.3    43  ILE43       0.0019
     28  CG2       52.3870    4.1430   40.9610 C.3    43  ILE43       0.0020
     29  CD1       49.8200    3.0420   42.3390 C.3    43  ILE43       0.0001
     30  N         53.4070    1.5810   44.2770 N.am   44  THR44      -0.1953
     31  CA        53.3180    0.7160   45.4500 C.3    44  THR44       0.1897
     32  C         51.9880    0.9330   46.1760 C.2    44  THR44       0.2313
     33  O         51.4200   -0.0030   46.7360 O.2    44  THR44      -0.2863
     34  CB        54.4920    0.9770   46.4300 C.3    44  THR44       0.1794
     35  OG1       54.5540    2.3740   46.7540 O.3    44  THR44      -0.2208
     36  CG2       55.8140    0.5480   45.8030 C.3    44  THR44       0.0378
     37  N         42.9210   -0.3530   45.4740 N.3    64  VAL64      -0.1231
     38  CA        43.4630   -1.6970   45.3020 C.3    64  VAL64       0.1692
     39  C         43.6240   -2.0360   43.8160 C.2    64  VAL64       0.2592
     40  O         42.8260   -1.5980   42.9880 O.2    64  VAL64      -0.2718
     41  CB        42.5330   -2.7410   45.9430 C.3    64  VAL64       0.0266
     42  CG1       42.2950   -2.4000   47.4020 C.3    64  VAL64       0.0020
     43  CG2       41.2120   -2.7820   45.1920 C.3    64  VAL64       0.0020
     44  N         44.6540   -2.8110   43.4780 N.am   65  TRP65      -0.1962
     45  CA        44.8660   -3.1890   42.0870 C.3    65  TRP65       0.1771
     46  C         43.6380   -3.9430   41.5910 C.2    65  TRP65       0.2620
     47  O         43.1580   -4.8620   42.2560 O.2    65  TRP65      -0.2715
     48  CB        46.0990   -4.0860   41.9290 C.3    65  TRP65       0.0590
     49  CG        46.3550   -4.4430   40.4950 C.ar   65  TRP65       0.0006
     50  CD1       46.8790   -3.6340   39.5350 C.ar   65  TRP65       0.0946
     51  CD2       46.0180   -5.6750   39.8420 C.ar   65  TRP65       0.0152
     52  NE1       46.8910   -4.2800   38.3160 N.ar   65  TRP65      -0.2442
     53  CE2       46.3700   -5.5360   38.4780 C.ar   65  TRP65       0.0810
     54  CE3       45.4580   -6.8840   40.2760 C.ar   65  TRP65       0.0012
     55  CZ2       46.1760   -6.5580   37.5460 C.ar   65  TRP65       0.0191
     56  CZ3       45.2630   -7.9050   39.3430 C.ar   65  TRP65       0.0001
     57  CH2       45.6250   -7.7320   37.9950 C.ar   65  TRP65       0.0015
     58  N         43.1410   -3.5560   40.4190 N.am   66  ASP66      -0.1957
     59  CA        41.9550   -4.1850   39.8480 C.3    66  ASP66       0.1840
     60  C         42.2440   -5.0420   38.6320 C.2    66  ASP66       0.2623
     61  O         41.6930   -6.1300   38.5010 O.2    66  ASP66      -0.2715
     62  CB        40.9200   -3.1130   39.4860 C.3    66  ASP66       0.1450
     63  CG        39.6960   -3.6870   38.7810 C.2    66  ASP66       0.3671
     64  OD1       39.5690   -3.4940   37.5510 O.co2  66  ASP66      -0.2456
     65  OD2       38.8680   -4.3360   39.4610 O.co2  66  ASP66      -0.2456
     66  N         43.1090   -4.5580   37.7450 N.am   67  SER67      -0.1936
     67  CA        43.4350   -5.3070   36.5310 C.3    67  SER67       0.2055
     68  C         44.4630   -4.6270   35.6280 C.2    67  SER67       0.2643
     69  O         45.0040   -3.5720   35.9480 O.2    67  SER67      -0.2714
     70  CB        42.1620   -5.5360   35.7130 C.3    67  SER67       0.2130
     71  OG        41.5860   -4.2900   35.3340 O.3    67  SER67      -0.2179
     72  N         44.7110   -5.2640   34.4900 N.am   68  ASN68      -0.1971
     73  CA        45.6290   -4.7630   33.4820 C.3    68  ASN68       0.1688
     74  C         44.7800   -4.4350   32.2650 C.2    68  ASN68       0.2292
     75  O         43.6730   -4.9550   32.1250 O.2    68  ASN68      -0.2864
     76  CB        46.6320   -5.8420   33.0770 C.3    68  ASN68       0.1181
     77  CG        47.5140   -6.2820   34.2160 C.2    68  ASN68       0.2629
     78  OD1       47.5060   -7.4490   34.6050 O.2    68  ASN68      -0.2716
     79  ND2       48.2920   -5.3500   34.7570 N.am   68  ASN68      -0.0877
     80  N         48.1590   -0.5850   34.5480 N.3    75  ASP75      -0.1239
     81  CA        47.4980   -1.1320   35.7180 C.3    75  ASP75       0.1674
     82  C         46.3040   -0.2310   35.9920 C.2    75  ASP75       0.2266
     83  O         46.3440    0.9660   35.7060 O.2    75  ASP75      -0.2867
     84  CB        48.4140   -1.1050   36.9530 C.3    75  ASP75       0.1410
     85  CG        49.1900   -2.3930   37.1450 C.2    75  ASP75       0.3668
     86  OD1       48.7550   -3.4420   36.6260 O.co2  75  ASP75      -0.2456
     87  OD2       50.2290   -2.3570   37.8320 O.co2  75  ASP75      -0.2456
     88  N         43.9950    0.8420   39.1350 N.3    77  TRP77      -0.1227
     89  CA        43.7770    0.7800   40.5710 C.3    77  TRP77       0.1737
     90  C         42.3480    1.2260   40.8310 C.2    77  TRP77       0.2595
     91  O         41.8460    2.1540   40.1950 O.2    77  TRP77      -0.2718
     92  CB        44.7860    1.6560   41.3040 C.3    77  TRP77       0.0564
     93  CG        46.1710    1.1290   41.1470 C.ar   77  TRP77       0.0003
     94  CD1       46.9490    1.1970   40.0300 C.ar   77  TRP77       0.0946
     95  CD2       46.9250    0.3940   42.1200 C.ar   77  TRP77       0.0152
     96  NE1       48.1450    0.5530   40.2430 N.ar   77  TRP77      -0.2442
     97  CE2       48.1570    0.0480   41.5190 C.ar   77  TRP77       0.0810
     98  CE3       46.6790   -0.0100   43.4440 C.ar   77  TRP77       0.0012
     99  CZ2       49.1460   -0.6830   42.1940 C.ar   77  TRP77       0.0191
    100  CZ3       47.6610   -0.7380   44.1170 C.ar   77  TRP77       0.0001
    101  CH2       48.8800   -1.0650   43.4880 C.ar   77  TRP77       0.0015
    102  N         41.7030    0.5530   41.7740 N.am   78  LYS78      -0.1980
    103  CA        40.3090    0.7980   42.0840 C.3    78  LYS78       0.1596
    104  C         40.0430    1.2980   43.5000 C.2    78  LYS78       0.2287
    105  O         40.7900    1.0150   44.4330 O.2    78  LYS78      -0.2864
    106  CB        39.5340   -0.4990   41.8270 C.3    78  LYS78       0.0298
    107  CG        38.0390   -0.3470   41.7140 C.3    78  LYS78       0.0038
    108  CD        37.3710   -1.6550   41.3090 C.3    78  LYS78       0.0206
    109  CE        37.4460   -2.7190   42.4080 C.3    78  LYS78       0.1093
    110  NZ        38.8290   -3.2280   42.6590 N.3    78  LYS78      -0.1314
@<TRIPOS>BOND
     1    75    74    2
     2    74    73    1
     3    76    73    1
     4    76    77    1
     5    73    72    1
     6    15    16    1
     7    15    14    1
     8    13    14    1
     9    13    10    1
    10    77    78    2
    11    77    79   am
    12     9    10    1
    13    16    17    1
    14    72    68   am
    15    80    81    1
    16    10    11    1
    17    71    70    1
    18    12    11    2
    19    68    69    2
    20    68    67    1
    21    83    82    2
    22    70    67    1
    23    81    82    1
    24    81    84    1
    25    11    18   am
    26    67    66    1
    27    86    85   ar
    28    84    85    1
    29    85    87   ar
    30    18    19    1
    31    55    57   ar
    32    55    53   ar
    33    64    63   ar
    34    66    60   am
    35    57    56   ar
    36    19    20    1
    37    52    53   ar
    38    52    50   ar
    39    20    21    2
    40    53    51   ar
    41    61    60    2
    42    60    59    1
    43    63    65   ar
    44    63    62    1
    45    88    89    1
    46    56    54   ar
    47    62    59    1
    48    50    49   ar
    49    51    54   ar
    50    51    49   ar
    51    59    58    1
    52    94    96   ar
    53    94    93   ar
    54    91    90    2
    55    96    97   ar
    56     1     2    1
    57    58    46   am
    58    49    48    1
    59    89    90    1
    60    89    92    1
    61    22    23    1
    62    90   102   am
    63    28    26    1
    64    93    92    1
    65    93    95   ar
    66   108   107    1
    67   108   109    1
    68    97    95   ar
    69    97    99   ar
    70    46    45    1
    71    46    47    2
    72     2     3    1
    73     2     5    1
    74   107   106    1
    75     3     4    2
    76   102   103    1
    77   106   103    1
    78    48    45    1
    79    23    26    1
    80    23    24    1
    81    27    26    1
    82    27    29    1
    83   103   104    1
    84    45    44    1
    85    95    98   ar
    86    99   101   ar
    87     8     6   am
    88   109   110    1
    89     6     7    2
    90     6     5    1
    91    25    24    2
    92    40    39    2
    93    24    30   am
    94    98   100   ar
    95    44    39   am
    96   101   100   ar
    97   104   105    2
    98    39    38    1
    99    30    31    1
   100    43    41    1
   101    38    37    1
   102    38    41    1
   103    31    32    1
   104    31    34    1
   105    36    34    1
   106    41    42    1
   107    32    33    2
   108    34    35    1
