@<TRIPOS>MOLECULE
tmp/2d0hA00.pdb
 235 229 0 0 0
SMALL
GASTEIGER

@<TRIPOS>ATOM
      1  N        -32.2150  -27.9440   77.3940 N.3   160  ASN160     -0.1240
      2  CA       -33.2550  -28.8830   77.8040 C.3   160  ASN160      0.1653
      3  C        -32.7870  -29.5740   79.0860 C.2   160  ASN160      0.2266
      4  O        -33.1870  -30.7000   79.3830 O.2   160  ASN160     -0.2867
      5  CB       -33.4980  -29.9280   76.7050 C.3   160  ASN160      0.1155
      6  CG       -34.9370  -30.4180   76.6640 C.2   160  ASN160      0.2627
      7  OD1      -35.4850  -30.8720   77.6710 O.2   160  ASN160     -0.2716
      8  ND2      -35.5550  -30.3310   75.4900 N.am  160  ASN160     -0.0877
      9  N        -27.5630  -36.0420   75.9810 N.3   180  ASP180     -0.1225
     10  CA       -28.7130  -36.2880   75.1230 C.3   180  ASP180      0.1805
     11  C        -28.3060  -36.6070   73.6890 C.2   180  ASP180      0.2598
     12  O        -27.3670  -36.0190   73.1570 O.2   180  ASP180     -0.2718
     13  CB       -29.6430  -35.0740   75.1530 C.3   180  ASP180      0.1424
     14  CG       -30.9160  -35.3030   74.3770 C.2   180  ASP180      0.3668
     15  OD1      -30.9330  -35.0320   73.1570 O.co2 180  ASP180     -0.2456
     16  OD2      -31.8970  -35.7760   74.9880 O.co2 180  ASP180     -0.2456
     17  N        -29.0140  -37.5460   73.0660 N.am  181  ASN181     -0.1960
     18  CA       -28.7080  -37.9400   71.6940 C.3   181  ASN181      0.1819
     19  C        -28.6850  -36.7660   70.7220 C.2   181  ASN181      0.2622
     20  O        -27.9630  -36.7940   69.7250 O.2   181  ASN181     -0.2715
     21  CB       -29.7070  -38.9920   71.1940 C.3   181  ASN181      0.1195
     22  CG       -29.5360  -40.3280   71.8870 C.2   181  ASN181      0.2630
     23  OD1      -28.4500  -40.6490   72.3730 O.2   181  ASN181     -0.2716
     24  ND2      -30.6040  -41.1230   71.9250 N.am  181  ASN181     -0.0877
     25  N        -29.4630  -35.7320   71.0200 N.am  182  SER182     -0.1950
     26  CA       -29.5290  -34.5590   70.1530 C.3   182  SER182      0.1924
     27  C        -28.4330  -33.5330   70.4090 C.2   182  SER182      0.2314
     28  O        -28.3540  -32.5200   69.7080 O.2   182  SER182     -0.2863
     29  CB       -30.8980  -33.8850   70.2830 C.3   182  SER182      0.2116
     30  OG       -31.9120  -34.6850   69.6990 O.3   182  SER182     -0.2180
     31  N        -28.5660  -31.9670   64.8080 N.3   221  HIS221     -0.1241
     32  CA       -29.2820  -32.1460   63.5460 C.3   221  HIS221      0.1621
     33  C        -29.6400  -30.7630   63.0060 C.2   221  HIS221      0.2264
     34  O        -29.7640  -30.5530   61.7980 O.2   221  HIS221     -0.2867
     35  CB       -30.5470  -32.9960   63.7380 C.3   221  HIS221      0.0745
     36  CG       -31.5170  -32.4450   64.7390 C.ar  221  HIS221      0.0817
     37  ND1      -31.6430  -32.9560   66.0140 N.ar  221  HIS221     -0.2268
     38  CD2      -32.4380  -31.4580   64.6380 C.ar  221  HIS221      0.1154
     39  CE1      -32.6040  -32.3100   66.6530 C.ar  221  HIS221      0.1986
     40  NE2      -33.1020  -31.3970   65.8400 N.ar  221  HIS221     -0.2212
     41  N        -32.4640  -28.8790   63.2430 N.3   223  TYR223     -0.1241
     42  CA       -33.7650  -28.5980   62.6680 C.3   223  TYR223      0.1605
     43  C        -34.5220  -27.6410   63.5840 C.2   223  TYR223      0.2264
     44  O        -35.6790  -27.3190   63.3280 O.2   223  TYR223     -0.2867
     45  CB       -34.5710  -29.8840   62.4420 C.3   223  TYR223      0.0534
     46  CG       -34.2170  -30.5890   61.1470 C.ar  223  TYR223     -0.0201
     47  CD1      -33.3380  -31.6760   61.1300 C.ar  223  TYR223     -0.0009
     48  CD2      -34.7280  -30.1390   59.9310 C.ar  223  TYR223     -0.0009
     49  CE1      -32.9790  -32.2980   59.9280 C.ar  223  TYR223      0.0417
     50  CE2      -34.3750  -30.7510   58.7250 C.ar  223  TYR223      0.0417
     51  CZ       -33.5020  -31.8300   58.7310 C.ar  223  TYR223      0.1957
     52  OH       -33.1620  -32.4410   57.5420 O.3   223  TYR223     -0.2866
     53  N        -41.1160  -24.2980   61.1390 N.3   267  HIS267     -0.1241
     54  CA       -40.9470  -23.8990   62.5300 C.3   267  HIS267      0.1621
     55  C        -39.5190  -23.4420   62.7970 C.2   267  HIS267      0.2264
     56  O        -38.6490  -23.5630   61.9390 O.2   267  HIS267     -0.2867
     57  CB       -41.2350  -25.1000   63.4270 C.3   267  HIS267      0.0745
     58  CG       -40.4790  -26.3330   63.0310 C.ar  267  HIS267      0.0817
     59  ND1      -40.9950  -27.2830   62.1740 N.ar  267  HIS267     -0.2268
     60  CD2      -39.2250  -26.7450   63.3330 C.ar  267  HIS267      0.1154
     61  CE1      -40.0930  -28.2250   61.9660 C.ar  267  HIS267      0.1986
     62  NE2      -39.0090  -27.9220   62.6560 N.ar  267  HIS267     -0.2212
     63  N        -44.2560  -28.2890   66.0690 N.3   310  PHE310     -0.1227
     64  CA       -44.1260  -29.4240   65.1770 C.3   310  PHE310      0.1736
     65  C        -44.4190  -30.6740   65.9960 C.2   310  PHE310      0.2595
     66  O        -43.6710  -31.0200   66.9150 O.2   310  PHE310     -0.2718
     67  CB       -42.7150  -29.4870   64.5860 C.3   310  PHE310      0.0547
     68  CG       -42.4500  -30.7260   63.7810 C.ar  310  PHE310     -0.0202
     69  CD1      -41.8040  -31.8190   64.3530 C.ar  310  PHE310     -0.0042
     70  CD2      -42.8660  -30.8130   62.4590 C.ar  310  PHE310     -0.0042
     71  CE1      -41.5770  -32.9780   63.6160 C.ar  310  PHE310     -0.0003
     72  CE2      -42.6450  -31.9670   61.7130 C.ar  310  PHE310     -0.0003
     73  CZ       -42.0000  -33.0510   62.2920 C.ar  310  PHE310     -0.0000
     74  N        -45.5340  -31.3210   65.6710 N.am  311  LEU311     -0.1980
     75  CA       -45.9800  -32.5440   66.3330 C.3   311  LEU311      0.1596
     76  C        -45.8680  -32.5600   67.8570 C.2   311  LEU311      0.2287
     77  O        -45.5460  -33.5880   68.4480 O.2   311  LEU311     -0.2864
     78  CB       -45.2260  -33.7470   65.7600 C.3   311  LEU311      0.0297
     79  CG       -45.2510  -33.9050   64.2380 C.3   311  LEU311      0.0022
     80  CD1      -44.5100  -35.1790   63.8590 C.3   311  LEU311      0.0001
     81  CD2      -46.6830  -33.9400   63.7320 C.3   311  LEU311      0.0001
     82  N        -43.6580  -31.0430   69.7560 N.3   313  PHE313     -0.1227
     83  CA       -42.3100  -30.8220   70.2810 C.3   313  PHE313      0.1736
     84  C        -42.1660  -29.3710   70.7440 C.2   313  PHE313      0.2595
     85  O        -42.1320  -28.4490   69.9290 O.2   313  PHE313     -0.2718
     86  CB       -41.2670  -31.1510   69.2070 C.3   313  PHE313      0.0547
     87  CG       -41.0710  -32.6240   68.9880 C.ar  313  PHE313     -0.0202
     88  CD1      -40.3250  -33.3800   69.8870 C.ar  313  PHE313     -0.0042
     89  CD2      -41.6570  -33.2640   67.9030 C.ar  313  PHE313     -0.0042
     90  CE1      -40.1650  -34.7570   69.7080 C.ar  313  PHE313     -0.0003
     91  CE2      -41.5060  -34.6390   67.7140 C.ar  313  PHE313     -0.0003
     92  CZ       -40.7600  -35.3860   68.6180 C.ar  313  PHE313     -0.0000
     93  N        -42.0940  -29.1860   72.0610 N.am  314  ASN314     -0.1960
     94  CA       -41.9730  -27.8660   72.6870 C.3   314  ASN314      0.1819
     95  C        -40.8600  -26.9870   72.1480 C.2   314  ASN314      0.2622
     96  O        -41.0070  -25.7690   72.0610 O.2   314  ASN314     -0.2715
     97  CB       -41.7650  -28.0140   74.1970 C.3   314  ASN314      0.1195
     98  CG       -43.0380  -28.3310   74.9260 C.2   314  ASN314      0.2630
     99  OD1      -43.0170  -28.7280   76.0940 O.2   314  ASN314     -0.2716
    100  ND2      -44.1670  -28.1480   74.2460 N.am  314  ASN314     -0.0877
    101  N        -39.7370  -27.6030   71.8090 N.am  315  SER315     -0.1936
    102  CA       -38.6040  -26.8490   71.3010 C.3   315  SER315      0.2055
    103  C        -38.7750  -26.4280   69.8450 C.2   315  SER315      0.2642
    104  O        -37.9070  -25.7540   69.2960 O.2   315  SER315     -0.2714
    105  CB       -37.3300  -27.6810   71.4460 C.3   315  SER315      0.2130
    106  OG       -37.4750  -28.9210   70.7800 O.3   315  SER315     -0.2179
    107  N        -39.8910  -26.8040   69.2230 N.am  316  LEU316     -0.1977
    108  CA       -40.1060  -26.4570   67.8210 C.3   316  LEU316      0.1596
    109  C        -41.3440  -25.5920   67.5400 C.2   316  LEU316      0.2287
    110  O        -42.2700  -26.0250   66.8510 O.2   316  LEU316     -0.2864
    111  CB       -40.1650  -27.7410   66.9860 C.3   316  LEU316      0.0297
    112  CG       -38.9540  -28.6850   67.1060 C.3   316  LEU316      0.0022
    113  CD1      -39.1750  -29.9330   66.2430 C.3   316  LEU316      0.0001
    114  CD2      -37.6870  -27.9610   66.6700 C.3   316  LEU316      0.0001
    115  N        -34.3850  -27.9080   50.0340 N.3   354  ARG354     -0.1245
    116  CA       -35.1130  -29.1360   50.3460 C.3   354  ARG354      0.1563
    117  C        -36.0390  -28.6280   51.4410 C.2   354  ARG354      0.2260
    118  O        -35.5740  -28.1030   52.4580 O.2   354  ARG354     -0.2867
    119  CB       -34.1650  -30.2170   50.8750 C.3   354  ARG354      0.0307
    120  CG       -34.8520  -31.4560   51.4540 C.3   354  ARG354      0.0489
    121  CD       -35.1360  -31.2870   52.9420 C.3   354  ARG354      0.2205
    122  NE       -35.6750  -32.5020   53.5490 N.pl3 354  ARG354     -0.0865
    123  CZ       -35.9740  -32.6230   54.8380 C.cat 354  ARG354      0.5346
    124  NH1      -36.4590  -33.7650   55.3050 N.pl3 354  ARG354      0.1354
    125  NH2      -35.7860  -31.6030   55.6650 N.pl3 354  ARG354      0.1354
    126  N        -38.2080  -28.8610   54.5150 N.3   356  ASN356     -0.1225
    127  CA       -38.4700  -29.6510   55.7200 C.3   356  ASN356      0.1785
    128  C        -39.9260  -29.5400   56.1810 C.2   356  ASN356      0.2597
    129  O        -40.5090  -28.4540   56.1640 O.2   356  ASN356     -0.2718
    130  CB       -37.5630  -29.1780   56.8580 C.3   356  ASN356      0.1169
    131  CG       -37.6590  -30.0630   58.0870 C.2   356  ASN356      0.2627
    132  OD1      -37.3260  -31.2440   58.0390 O.2   356  ASN356     -0.2716
    133  ND2      -38.1140  -29.4970   59.1930 N.am  356  ASN356     -0.0877
    134  N        -40.5020  -30.6650   56.5950 N.am  357  ALA357     -0.1979
    135  CA       -41.8810  -30.7010   57.0840 C.3   357  ALA357      0.1597
    136  C        -42.7920  -29.8310   56.2200 C.2   357  ALA357      0.2287
    137  O        -43.7320  -29.2070   56.7110 O.2   357  ALA357     -0.2864
    138  CB       -41.9180  -30.2190   58.5370 C.3   357  ALA357      0.0319
    139  N        -45.2820  -30.2860   54.4220 N.3   359  GLN359     -0.1231
    140  CA       -46.7270  -30.4890   54.4370 C.3   359  GLN359      0.1698
    141  C        -47.4770  -29.7450   55.5390 C.2   359  GLN359      0.2592
    142  O        -48.6810  -29.5170   55.4180 O.2   359  GLN359     -0.2718
    143  CB       -47.0500  -31.9830   54.5330 C.3   359  GLN359      0.0381
    144  CG       -46.9840  -32.5360   55.9450 C.3   359  GLN359      0.0905
    145  CD       -47.1770  -34.0310   55.9950 C.2   359  GLN359      0.2608
    146  OE1      -46.2770  -34.7950   55.6490 O.2   359  GLN359     -0.2717
    147  NE2      -48.3600  -34.4620   56.4190 N.am  359  GLN359     -0.0878
    148  N        -46.7760  -29.3570   56.6020 N.am  360  TYR360     -0.1976
    149  CA       -47.4180  -28.6720   57.7250 C.3   360  TYR360      0.1639
    150  C        -47.4410  -27.1480   57.6590 C.2   360  TYR360      0.2290
    151  O        -48.2150  -26.5080   58.3760 O.2   360  TYR360     -0.2864
    152  CB       -46.7660  -29.0990   59.0490 C.3   360  TYR360      0.0560
    153  CG       -46.7490  -30.5940   59.2660 C.ar  360  TYR360     -0.0198
    154  CD1      -45.6460  -31.3620   58.8870 C.ar  360  TYR360     -0.0009
    155  CD2      -47.8520  -31.2490   59.8190 C.ar  360  TYR360     -0.0009
    156  CE1      -45.6420  -32.7480   59.0520 C.ar  360  TYR360      0.0417
    157  CE2      -47.8620  -32.6290   59.9870 C.ar  360  TYR360      0.0417
    158  CZ       -46.7540  -33.3740   59.6020 C.ar  360  TYR360      0.1957
    159  OH       -46.7590  -34.7390   59.7670 O.3   360  TYR360     -0.2866
    160  N        -40.2950  -32.3930   51.4300 N.3   396  GLN396     -0.1245
    161  CA       -40.2900  -33.6390   52.1800 C.3   396  GLN396      0.1566
    162  C        -41.7310  -34.1200   52.2930 C.2   396  GLN396      0.2260
    163  O        -42.6120  -33.3630   52.6980 O.2   396  GLN396     -0.2867
    164  CB       -39.7190  -33.4290   53.5890 C.3   396  GLN396      0.0367
    165  CG       -39.9600  -34.6120   54.5280 C.3   396  GLN396      0.0905
    166  CD       -39.4980  -34.3470   55.9500 C.2   396  GLN396      0.2608
    167  OE1      -39.7160  -33.2620   56.4920 O.2   396  GLN396     -0.2717
    168  NE2      -38.8700  -35.3470   56.5690 N.am  396  GLN396     -0.0878
    169  N        -43.8410  -38.2330   52.6930 N.3   398  TRP398     -0.1241
    170  CA       -43.7220  -39.6880   52.7110 C.3   398  TRP398      0.1605
    171  C        -44.6930  -40.4520   51.8040 C.2   398  TRP398      0.2264
    172  O        -44.4320  -41.6020   51.4530 O.2   398  TRP398     -0.2867
    173  CB       -43.8620  -40.2020   54.1490 C.3   398  TRP398      0.0550
    174  CG       -42.9340  -39.5360   55.1380 C.ar  398  TRP398      0.0003
    175  CD1      -43.0200  -38.2550   55.6120 C.ar  398  TRP398      0.0946
    176  CD2      -41.7950  -40.1250   55.7830 C.ar  398  TRP398      0.0152
    177  NE1      -42.0080  -38.0130   56.5130 N.ar  398  TRP398     -0.2442
    178  CE2      -41.2420  -39.1420   56.6370 C.ar  398  TRP398      0.0810
    179  CE3      -41.1880  -41.3870   55.7230 C.ar  398  TRP398      0.0012
    180  CZ2      -40.1090  -39.3830   57.4270 C.ar  398  TRP398      0.0191
    181  CZ3      -40.0590  -41.6260   56.5100 C.ar  398  TRP398      0.0001
    182  CH2      -39.5340  -40.6290   57.3480 C.ar  398  TRP398      0.0015
    183  N        -38.3230  -49.0040   57.7080 N.3   434  GLN434     -0.1245
    184  CA       -38.1890  -48.8920   59.1600 C.3   434  GLN434      0.1566
    185  C        -37.6530  -50.2100   59.7220 C.2   434  GLN434      0.2260
    186  O        -37.5290  -50.3870   60.9350 O.2   434  GLN434     -0.2867
    187  CB       -39.5400  -48.5550   59.8020 C.3   434  GLN434      0.0367
    188  CG       -40.1400  -47.2390   59.3120 C.3   434  GLN434      0.0905
    189  CD       -39.2920  -46.0310   59.6760 C.2   434  GLN434      0.2608
    190  OE1      -38.0680  -46.0570   59.5550 O.2   434  GLN434     -0.2717
    191  NE2      -39.9450  -44.9570   60.1110 N.am  434  GLN434     -0.0878
    192  N        -31.5770  -39.6940   56.7080 N.3   471  HIS471     -0.1226
    193  CA       -31.4880  -39.4490   58.1500 C.3   471  HIS471      0.1752
    194  C        -32.7050  -39.7790   59.0250 C.2   471  HIS471      0.2596
    195  O        -32.6040  -39.7290   60.2520 O.2   471  HIS471     -0.2718
    196  CB       -31.1070  -37.9840   58.3870 C.3   471  HIS471      0.0759
    197  CG       -32.1480  -37.0170   57.9190 C.ar  471  HIS471      0.0818
    198  ND1      -32.4840  -36.8740   56.5880 N.ar  471  HIS471     -0.2268
    199  CD2      -32.9700  -36.1890   58.6070 C.ar  471  HIS471      0.1154
    200  CE1      -33.4720  -36.0020   56.4780 C.ar  471  HIS471      0.1986
    201  NE2      -33.7850  -35.5720   57.6880 N.ar  471  HIS471     -0.2212
    202  N        -33.8480  -40.1050   58.4280 N.am  472  ASP472     -0.1974
    203  CA       -35.0260  -40.4150   59.2420 C.3   472  ASP472      0.1709
    204  C        -35.4350  -41.8820   59.2320 C.2   472  ASP472      0.2293
    205  O        -36.4150  -42.2520   59.8710 O.2   472  ASP472     -0.2864
    206  CB       -36.2330  -39.5690   58.8090 C.3   472  ASP472      0.1436
    207  CG       -36.0910  -38.1010   59.1720 C.2   472  ASP472      0.3671
    208  OD1      -35.5250  -37.7870   60.2460 O.co2 472  ASP472     -0.2456
    209  OD2      -36.5720  -37.2570   58.3870 O.co2 472  ASP472     -0.2456
    210  N        -32.9960  -43.5670   63.9850 N.3   516  ASP516     -0.1225
    211  CA       -32.4950  -42.3070   64.5320 C.3   516  ASP516      0.1790
    212  C        -32.1670  -42.5120   66.0130 C.2   516  ASP516      0.2439
    213  O        -33.0110  -42.9720   66.7800 O.2   516  ASP516     -0.2733
    214  CB       -33.5970  -41.2530   64.3590 C.3   516  ASP516      0.1423
    215  CG       -33.2030  -39.8820   64.8690 C.2   516  ASP516      0.3668
    216  OD1      -34.0780  -38.9860   64.8510 O.co2 516  ASP516     -0.2456
    217  OD2      -32.0390  -39.6900   65.2760 O.co2 516  ASP516     -0.2456
    218  N        -30.9550  -42.1310   66.4480 N.am  517  PRO517     -0.2729
    219  CA       -29.8600  -41.5160   65.6930 C.3   517  PRO517      0.1401
    220  C        -28.8140  -42.4650   65.1220 C.2   517  PRO517      0.2269
    221  O        -27.8010  -42.0120   64.5920 O.2   517  PRO517     -0.2865
    222  CB       -29.2420  -40.5940   66.7250 C.3   517  PRO517      0.0296
    223  CG       -29.2460  -41.4950   67.9400 C.3   517  PRO517      0.0237
    224  CD       -30.6300  -42.1520   67.8890 C.3   517  PRO517      0.0939
    225  N        -27.1350  -42.0550   61.6730 N.3   520  ARG520     -0.1245
    226  CA       -26.2730  -40.8960   61.4470 C.3   520  ARG520      0.1563
    227  C        -24.8620  -41.1210   62.0110 C.2   520  ARG520      0.2260
    228  O        -24.2810  -40.2310   62.6300 O.2   520  ARG520     -0.2867
    229  CB       -26.9180  -39.6650   62.0970 C.3   520  ARG520      0.0307
    230  CG       -28.3770  -39.4740   61.6900 C.3   520  ARG520      0.0489
    231  CD       -29.1540  -38.5530   62.6270 C.3   520  ARG520      0.2205
    232  NE       -30.5320  -38.3760   62.1680 N.pl3 520  ARG520     -0.0865
    233  CZ       -31.4010  -37.5100   62.6870 C.cat 520  ARG520      0.5346
    234  NH1      -31.0490  -36.7200   63.6980 N.pl3 520  ARG520      0.1354
    235  NH2      -32.6270  -37.4250   62.1830 N.pl3 520  ARG520      0.1354
@<TRIPOS>BOND
     1   115   116    1
     2   116   119    1
     3   116   117    1
     4   119   120    1
     5   160   161    1
     6   117   118    2
     7   172   171    2
     8   120   121    1
     9   171   170    1
    10   161   162    1
    11   161   164    1
    12   162   163    2
    13   169   170    1
    14   170   173    1
    15   121   122    1
    16   122   123    2
    17   164   165    1
    18   173   174    1
    19   139   140    1
    20   140   143    1
    21   140   141    1
    22   126   127    1
    23   165   166    1
    24   143   144    1
    25   123   124    1
    26   123   125    1
    27   174   175   ar
    28   174   176   ar
    29   142   141    2
    30   141   148   am
    31   175   177   ar
    32   146   145    2
    33   127   128    1
    34   127   130    1
    35   179   176   ar
    36   179   181   ar
    37   176   178   ar
    38   144   145    1
    39   166   167    2
    40   166   168   am
    41   145   147   am
    42   129   128    2
    43   128   134   am
    44   136   137    2
    45   136   135    1
    46   200   198   ar
    47   200   201   ar
    48   181   182   ar
    49   177   178   ar
    50   198   197   ar
    51   134   135    1
    52   148   149    1
    53   178   180   ar
    54   192   193    1
    55   130   131    1
    56   135   138    1
    57   182   180   ar
    58    52    51    1
    59   150   149    1
    60   150   151    2
    61   201   199   ar
    62   183   184    1
    63   149   152    1
    64   197   196    1
    65   197   199   ar
    66   132   131    2
    67   131   133   am
    68   193   196    1
    69   193   194    1
    70   209   207   ar
    71   202   194   am
    72   202   203    1
    73    50    51   ar
    74    50    48   ar
    75    51    49   ar
    76   206   207    1
    77   206   203    1
    78   154   156   ar
    79   154   153   ar
    80   194   195    2
    81   152   153    1
    82   156   158   ar
    83   184   185    1
    84   184   187    1
    85   207   208   ar
    86   204   203    1
    87   204   205    2
    88   153   155   ar
    89   188   189    1
    90   188   187    1
    91   190   189    2
    92   158   159    1
    93   158   157   ar
    94   189   191   am
    95   185   186    2
    96   155   157   ar
    97    49    47   ar
    98    48    46   ar
    99    47    46   ar
   100    53    54    1
   101    46    45    1
   102   226   225    1
   103   226   227    1
   104   226   229    1
   105   230   229    1
   106   230   231    1
   107    72    73   ar
   108    72    70   ar
   109    34    33    2
   110    56    55    2
   111    61    59   ar
   112    61    62   ar
   113   227   228    2
   114   232   231    1
   115   232   233    2
   116    59    58   ar
   117   235   233    1
   118    73    71   ar
   119    45    42    1
   120    70    68   ar
   121    54    55    1
   122    54    57    1
   123    62    60   ar
   124    42    41    1
   125    42    43    1
   126   233   234    1
   127    33    32    1
   128    58    60   ar
   129    58    57    1
   130    44    43    2
   131    32    35    1
   132    32    31    1
   133    71    69   ar
   134    81    79    1
   135    35    36    1
   136    68    69   ar
   137    68    67    1
   138    80    79    1
   139   210   211    1
   140    79    78    1
   141   214   211    1
   142   214   215    1
   143   211   212    1
   144    67    64    1
   145   221   220    2
   146    38    36   ar
   147    38    40   ar
   148    36    37   ar
   149   216   215   ar
   150   215   217   ar
   151   220   219    1
   152    64    65    1
   153    64    63    1
   154    74    65   am
   155    74    75    1
   156   219   218    1
   157   219   222    1
   158    78    75    1
   159    40    39   ar
   160    65    66    2
   161   212   218   am
   162   212   213    2
   163    37    39   ar
   164   113   112    1
   165    75    76    1
   166   218   224    1
   167   114   112    1
   168   222   223    1
   169   110   109    2
   170   111   112    1
   171   111   108    1
   172   109   108    1
   173    91    89   ar
   174    91    92   ar
   175   108   107    1
   176    76    77    2
   177   224   223    1
   178    89    87   ar
   179    92    90   ar
   180    87    86    1
   181    87    88   ar
   182    86    83    1
   183   107   103   am
   184   104   103    2
   185    30    29    1
   186    90    88   ar
   187    28    27    2
   188    20    19    2
   189    82    83    1
   190   103   102    1
   191    85    84    2
   192    26    29    1
   193    26    27    1
   194    26    25    1
   195    83    84    1
   196    19    25   am
   197    19    18    1
   198    84    93   am
   199   106   105    1
   200    21    18    1
   201    21    22    1
   202   102   105    1
   203   102   101    1
   204    18    17    1
   205   101    95   am
   206    22    24   am
   207    22    23    2
   208    93    94    1
   209    96    95    2
   210    95    94    1
   211    94    97    1
   212    17    11   am
   213    12    11    2
   214    15    14   ar
   215    11    10    1
   216    97    98    1
   217   100    98   am
   218    14    16   ar
   219    14    13    1
   220    98    99    2
   221    10    13    1
   222    10     9    1
   223     8     6   am
   224     6     5    1
   225     6     7    2
   226     5     2    1
   227     1     2    1
   228     2     3    1
   229     3     4    2
