@<TRIPOS>MOLECULE
tmp/2d0nA00.pdb
 129 126 0 0 0
SMALL
GASTEIGER

@<TRIPOS>ATOM
      1  N          3.9250   -5.6810  -31.2010 N.3     9  TYR9       -0.1241
      2  CA         4.9850   -6.3610  -31.8830 C.3     9  TYR9        0.1605
      3  C          4.3270   -7.5300  -32.6360 C.2     9  TYR9        0.2264
      4  O          3.1880   -7.9770  -32.3640 O.2     9  TYR9       -0.2867
      5  CB         6.0100   -6.9420  -30.9150 C.3     9  TYR9        0.0534
      6  CG         6.2070   -6.0740  -29.7000 C.ar    9  TYR9       -0.0201
      7  CD1        6.8710   -4.8480  -29.8070 C.ar    9  TYR9       -0.0009
      8  CD2        5.6160   -6.4050  -28.4470 C.ar    9  TYR9       -0.0009
      9  CE1        7.0010   -4.0750  -28.6720 C.ar    9  TYR9        0.0417
     10  CE2        5.7140   -5.5540  -27.3010 C.ar    9  TYR9        0.0417
     11  CZ         6.4090   -4.3770  -27.4690 C.ar    9  TYR9        0.1957
     12  OH         6.6160   -3.4920  -26.3800 O.3     9  TYR9       -0.2866
     13  N          3.8270  -11.3950  -33.4410 N.3    11  PHE11      -0.1227
     14  CA         3.9160  -12.6390  -32.6510 C.3    11  PHE11       0.1736
     15  C          3.6920  -13.8190  -33.5560 C.2    11  PHE11       0.2595
     16  O          2.5720  -13.8920  -34.1580 O.2    11  PHE11      -0.2718
     17  CB         2.8680  -12.6710  -31.4990 C.3    11  PHE11       0.0547
     18  CG         2.8070  -14.0270  -30.8040 C.ar   11  PHE11      -0.0202
     19  CD1        3.9580  -14.5910  -30.2050 C.ar   11  PHE11      -0.0042
     20  CD2        1.6040  -14.6470  -30.6960 C.ar   11  PHE11      -0.0042
     21  CE1        3.8560  -15.9300  -29.5600 C.ar   11  PHE11      -0.0003
     22  CE2        1.4870  -15.9070  -30.1060 C.ar   11  PHE11      -0.0003
     23  CZ         2.6070  -16.5260  -29.5400 C.ar   11  PHE11      -0.0000
     24  N          4.7070  -14.7050  -33.6180 N.am   12  GLU12      -0.1979
     25  CA         4.6120  -15.8730  -34.4810 C.3    12  GLU12       0.1602
     26  C          4.0920  -17.0510  -33.6840 C.2    12  GLU12       0.2287
     27  O          4.7980  -17.5550  -32.7520 O.2    12  GLU12      -0.2864
     28  CB         5.9740  -16.2110  -35.0680 C.3    12  GLU12       0.0415
     29  CG         5.8540  -17.3750  -36.0490 C.3    12  GLU12       0.1163
     30  CD         7.1890  -17.8160  -36.6320 C.2    12  GLU12       0.3649
     31  OE1        8.2730  -17.3180  -36.1710 O.co2  12  GLU12      -0.2457
     32  OE2        7.1090  -18.7390  -37.4820 O.co2  12  GLU12      -0.2457
     33  N          3.6960  -20.7330  -32.7230 N.3    14  LEU14      -0.1231
     34  CA         4.3940  -22.0180  -32.9790 C.3    14  LEU14       0.1693
     35  C          3.6880  -23.3040  -32.5920 C.2    14  LEU14       0.2591
     36  O          4.2750  -24.3800  -32.7440 O.2    14  LEU14      -0.2718
     37  CB         5.8810  -21.9320  -32.4200 C.3    14  LEU14       0.0284
     38  CG         6.7580  -20.7970  -32.9450 C.3    14  LEU14       0.0019
     39  CD1        8.0540  -20.7380  -32.0180 C.3    14  LEU14       0.0001
     40  CD2        7.1750  -21.0360  -34.4310 C.3    14  LEU14       0.0001
     41  N          2.4220  -23.1850  -32.1360 N.am   15  GLU15      -0.1979
     42  CA         1.5840  -24.3070  -31.8360 C.3    15  GLU15       0.1602
     43  C          0.1890  -23.8530  -32.1840 C.2    15  GLU15       0.2287
     44  O         -0.1520  -22.6200  -32.2350 O.2    15  GLU15      -0.2864
     45  CB         1.6150  -24.5970  -30.3200 C.3    15  GLU15       0.0415
     46  CG         2.7870  -25.3180  -29.9290 C.3    15  GLU15       0.1163
     47  CD         2.6260  -25.6210  -28.4200 C.2    15  GLU15       0.3649
     48  OE1        1.6420  -26.3220  -28.0160 O.co2  15  GLU15      -0.2457
     49  OE2        3.4530  -25.0970  -27.6670 O.co2  15  GLU15      -0.2457
     50  N         -2.5320  -23.8960  -30.5080 N.3    17  ASP17      -0.1225
     51  CA        -3.2740  -23.2510  -29.4340 C.3    17  ASP17       0.1805
     52  C         -2.7740  -21.8100  -29.2310 C.2    17  ASP17       0.2597
     53  O         -3.2060  -21.1870  -28.2820 O.2    17  ASP17      -0.2718
     54  CB        -3.1710  -24.0440  -28.0940 C.3    17  ASP17       0.1424
     55  CG        -1.8920  -23.9220  -27.3800 C.2    17  ASP17       0.3668
     56  OD1       -0.8690  -23.5470  -28.0480 O.co2  17  ASP17      -0.2456
     57  OD2       -1.9080  -24.3450  -26.1600 O.co2  17  ASP17      -0.2456
     58  N         -1.7790  -21.4130  -30.0620 N.am   18  GLU18      -0.1979
     59  CA        -1.3730  -20.0220  -30.1150 C.3    18  GLU18       0.1602
     60  C         -2.0700  -19.1570  -31.1420 C.2    18  GLU18       0.2287
     61  O         -2.4390  -19.6600  -32.2360 O.2    18  GLU18      -0.2864
     62  CB         0.1640  -19.8690  -30.2390 C.3    18  GLU18       0.0415
     63  CG         0.8550  -20.3880  -28.9260 C.3    18  GLU18       0.1163
     64  CD         2.3250  -20.6680  -29.0550 C.2    18  GLU18       0.3649
     65  OE1        2.9100  -20.1720  -30.0340 O.co2  18  GLU18      -0.2457
     66  OE2        2.9010  -21.3730  -28.1340 O.co2  18  GLU18      -0.2457
     67  N         -5.1100  -14.4860  -16.9230 N.3    34  ASN34      -0.1240
     68  CA        -3.7320  -14.9460  -16.7170 C.3    34  ASN34       0.1653
     69  C         -2.7180  -13.8220  -16.8730 C.2    34  ASN34       0.2266
     70  O         -2.7880  -13.0060  -17.8230 O.2    34  ASN34      -0.2867
     71  CB        -3.4140  -15.9800  -17.7890 C.3    34  ASN34       0.1155
     72  CG        -2.0720  -16.6230  -17.5470 C.2    34  ASN34       0.2627
     73  OD1       -1.0130  -16.1580  -17.9940 O.2    34  ASN34      -0.2716
     74  ND2       -2.1300  -17.7420  -16.8560 N.am   34  ASN34      -0.0877
     75  N          0.4400  -13.8250  -17.8270 N.3    36  SER36      -0.1202
     76  CA         1.4750  -14.0590  -18.8150 C.3    36  SER36       0.2020
     77  C          0.9180  -14.2490  -20.2480 C.2    36  SER36       0.2618
     78  O          1.5730  -13.8210  -21.2440 O.2    36  SER36      -0.2717
     79  CB         2.3170  -15.3540  -18.5040 C.3    36  SER36       0.2103
     80  OG         3.0630  -15.1800  -17.2780 O.3    36  SER36      -0.2182
     81  N         -0.1760  -15.0090  -20.3010 N.am   37  TRP37      -0.1975
     82  CA        -0.6870  -15.4410  -21.6480 C.3    37  TRP37       0.1640
     83  C         -2.2250  -15.2150  -21.7340 C.2    37  TRP37       0.2290
     84  O         -3.0020  -15.8710  -20.9600 O.2    37  TRP37      -0.2864
     85  CB        -0.4020  -16.9350  -21.8860 C.3    37  TRP37       0.0576
     86  CG         1.0080  -17.2150  -22.1970 C.ar   37  TRP37       0.0006
     87  CD1        2.0500  -17.4100  -21.2670 C.ar   37  TRP37       0.0946
     88  CD2        1.5990  -17.2880  -23.5050 C.ar   37  TRP37       0.0152
     89  NE1        3.2340  -17.6530  -21.9730 N.ar   37  TRP37      -0.2442
     90  CE2        2.9850  -17.5500  -23.3300 C.ar   37  TRP37       0.0810
     91  CE3        1.0900  -17.1760  -24.8310 C.ar   37  TRP37       0.0012
     92  CZ2        3.8440  -17.7890  -24.4270 C.ar   37  TRP37       0.0191
     93  CZ3        1.9820  -17.4090  -25.9210 C.ar   37  TRP37       0.0001
     94  CH2        3.3700  -17.6220  -25.6910 C.ar   37  TRP37       0.0015
     95  N         -3.8120  -18.5590  -27.5180 N.3    48  LEU48      -0.1245
     96  CA        -3.0380  -17.9030  -26.4680 C.3    48  LEU48       0.1561
     97  C         -1.9770  -17.0050  -27.1140 C.2    48  LEU48       0.2260
     98  O         -1.3990  -17.2760  -28.2160 O.2    48  LEU48      -0.2867
     99  CB        -2.3670  -18.9340  -25.5650 C.3    48  LEU48       0.0270
    100  CG        -3.3190  -19.8380  -24.7560 C.3    48  LEU48       0.0019
    101  CD1       -2.6870  -21.0810  -24.2250 C.3    48  LEU48       0.0001
    102  CD2       -3.7760  -19.0260  -23.5710 C.3    48  LEU48       0.0001
    103  N          1.1470  -13.6650  -25.8490 N.3    50  PRO50      -0.2116
    104  CA         1.8060  -13.0140  -24.6640 C.3    50  PRO50       0.1372
    105  C          1.1060  -11.7470  -24.2720 C.2    50  PRO50       0.2244
    106  O          0.8770  -10.8630  -25.1050 O.2    50  PRO50      -0.2868
    107  CB         3.2750  -12.7910  -25.1250 C.3    50  PRO50       0.0268
    108  CG         3.3900  -13.4990  -26.5290 C.3    50  PRO50       0.0207
    109  CD         2.0090  -13.7140  -27.0490 C.3    50  PRO50       0.0892
    110  N          1.9610   -9.2570  -22.6550 N.3    52  ASN52      -0.1225
    111  CA         2.7690   -8.0190  -22.7950 C.3    52  ASN52       0.1785
    112  C          3.0200   -7.5730  -24.2730 C.2    52  ASN52       0.2597
    113  O          3.6250   -6.4890  -24.5010 O.2    52  ASN52      -0.2718
    114  CB         4.1590   -8.2060  -22.1260 C.3    52  ASN52       0.1169
    115  CG         4.9960   -9.3830  -22.7440 C.2    52  ASN52       0.2627
    116  OD1        4.5240  -10.4920  -22.8470 O.2    52  ASN52      -0.2716
    117  ND2        6.3090   -9.1540  -22.9600 N.am   52  ASN52      -0.0877
    118  N          2.6270   -8.3920  -25.2640 N.am   53  TYR53      -0.1976
    119  CA         2.6590   -8.0100  -26.6860 C.3    53  TYR53       0.1639
    120  C          1.5080   -7.0830  -27.1490 C.2    53  TYR53       0.2290
    121  O          1.5210   -6.6860  -28.3340 O.2    53  TYR53      -0.2864
    122  CB         2.7200   -9.2560  -27.5940 C.3    53  TYR53       0.0560
    123  CG         4.1050   -9.7980  -27.7900 C.ar   53  TYR53      -0.0198
    124  CD1        4.9150   -9.9950  -26.6910 C.ar   53  TYR53      -0.0009
    125  CD2        4.5830  -10.1710  -29.0780 C.ar   53  TYR53      -0.0009
    126  CE1        6.2380  -10.5300  -26.8320 C.ar   53  TYR53       0.0417
    127  CE2        5.8930  -10.6660  -29.2230 C.ar   53  TYR53       0.0417
    128  CZ         6.7130  -10.9000  -28.1240 C.ar   53  TYR53       0.1957
    129  OH         8.0280  -11.3810  -28.3400 O.3    53  TYR53      -0.2866
@<TRIPOS>BOND
     1    32    30   ar
     2    30    31   ar
     3    30    29    1
     4    29    28    1
     5    28    25    1
     6    25    26    1
     7    25    24    1
     8    40    38    1
     9    16    15    2
    10    26    27    2
    11    24    15   am
    12    15    14    1
    13    13    14    1
    14    34    33    1
    15    34    35    1
    16    34    37    1
    17    38    37    1
    18    38    39    1
    19    36    35    2
    20    14    17    1
    21     3     4    2
    22     3     2    1
    23    35    41   am
    24    61    60    2
    25    44    43    2
    26    43    42    1
    27    41    42    1
    28     2     1    1
    29     2     5    1
    30    42    45    1
    31    17    18    1
    32    60    59    1
    33     5     6    1
    34    18    20   ar
    35    18    19   ar
    36    20    22   ar
    37    50    51    1
    38    45    46    1
    39    62    59    1
    40    62    63    1
    41    19    21   ar
    42    59    58    1
    43    22    23   ar
    44    58    52   am
    45    65    64   ar
    46    46    47    1
    47     7     6   ar
    48     7     9   ar
    49     6     8   ar
    50    21    23   ar
    51    51    52    1
    52    51    54    1
    53    52    53    2
    54   127   125   ar
    55   127   128   ar
    56   125   123   ar
    57    64    63    1
    58    64    66   ar
    59     9    11   ar
    60     8    10   ar
    61    47    48   ar
    62    47    49   ar
    63   129   128    1
    64   121   120    2
    65    98    97    2
    66   128   126   ar
    67    54    55    1
    68    56    55   ar
    69   123   122    1
    70   123   124   ar
    71   122   119    1
    72    95    96    1
    73    11    10   ar
    74    11    12    1
    75    55    57   ar
    76   120   119    1
    77    97    96    1
    78   109   108    1
    79   109   103    1
    80   126   124   ar
    81   119   118    1
    82   108   107    1
    83    96    99    1
    84    93    94   ar
    85    93    91   ar
    86   103   104    1
    87    94    92   ar
    88    99   100    1
    89   118   112   am
    90   107   104    1
    91   106   105    2
    92    91    88   ar
    93   100   101    1
    94   100   102    1
    95   104   105    1
    96   113   112    2
    97    92    90   ar
    98   112   111    1
    99    88    90   ar
   100    88    86   ar
   101    90    89   ar
   102   117   115   am
   103   116   115    2
   104   111   110    1
   105   111   114    1
   106   115   114    1
   107    86    85    1
   108    86    87   ar
   109    89    87   ar
   110    85    82    1
   111    83    82    1
   112    83    84    2
   113    82    81    1
   114    78    77    2
   115    81    77   am
   116    77    76    1
   117    76    79    1
   118    76    75    1
   119    79    80    1
   120    73    72    2
   121    70    69    2
   122    71    72    1
   123    71    68    1
   124    72    74   am
   125    67    68    1
   126    69    68    1
