@<TRIPOS>MOLECULE
tmp/2d0tA02.pdb
 111 105 0 0 0
SMALL
GASTEIGER

@<TRIPOS>ATOM
      1  N         55.8190   60.5130   14.9030 N.3   152  PHE152     -0.1241
      2  CA        56.6410   59.4400   15.4390 C.3   152  PHE152      0.1605
      3  C         56.4420   58.1300   14.6850 C.2   152  PHE152      0.2264
      4  O         57.3950   57.5610   14.1600 O.2   152  PHE152     -0.2867
      5  CB        56.3370   59.2450   16.9250 C.3   152  PHE152      0.0534
      6  CG        57.3100   58.3410   17.6360 C.ar  152  PHE152     -0.0203
      7  CD1       58.6770   58.6190   17.6200 C.ar  152  PHE152     -0.0042
      8  CD2       56.8520   57.2320   18.3550 C.ar  152  PHE152     -0.0042
      9  CE1       59.5780   57.8030   18.3190 C.ar  152  PHE152     -0.0003
     10  CE2       57.7410   56.4010   19.0620 C.ar  152  PHE152     -0.0003
     11  CZ        59.1050   56.6860   19.0450 C.ar  152  PHE152     -0.0000
     12  N         56.3330   64.4520   23.1070 N.3   215  PHE215     -0.1241
     13  CA        56.8230   63.0960   23.0010 C.3   215  PHE215      0.1605
     14  C         57.1550   62.5100   24.3530 C.2   215  PHE215      0.2264
     15  O         56.6730   61.4270   24.7090 O.2   215  PHE215     -0.2867
     16  CB        58.0850   63.0200   22.1490 C.3   215  PHE215      0.0534
     17  CG        58.7250   61.6600   22.1800 C.ar  215  PHE215     -0.0203
     18  CD1       58.2230   60.6200   21.3950 C.ar  215  PHE215     -0.0042
     19  CD2       59.7520   61.3820   23.0870 C.ar  215  PHE215     -0.0042
     20  CE1       58.7330   59.3310   21.5220 C.ar  215  PHE215     -0.0003
     21  CE2       60.2650   60.1000   23.2250 C.ar  215  PHE215     -0.0003
     22  CZ        59.7580   59.0690   22.4460 C.ar  215  PHE215     -0.0000
     23  N         55.3780   58.8010   24.9400 N.3   220  ARG220     -0.1245
     24  CA        56.2040   57.8630   25.6980 C.3   220  ARG220      0.1563
     25  C         55.4370   57.1130   26.7920 C.2   220  ARG220      0.2260
     26  O         55.6850   55.9250   27.0390 O.2   220  ARG220     -0.2867
     27  CB        57.3620   58.6360   26.3120 C.3   220  ARG220      0.0307
     28  CG        58.2480   57.8690   27.2370 C.3   220  ARG220      0.0489
     29  CD        59.4480   58.7320   27.6520 C.3   220  ARG220      0.2205
     30  NE        59.8100   58.4730   29.0390 N.pl3 220  ARG220     -0.0865
     31  CZ        59.1430   58.9630   30.0770 C.cat 220  ARG220      0.5346
     32  NH1       58.0960   59.7450   29.8790 N.pl3 220  ARG220      0.1354
     33  NH2       59.5000   58.6410   31.3120 N.pl3 220  ARG220      0.1354
     34  N         53.1950   54.2690   25.3270 N.3   223  LEU223     -0.1231
     35  CA        53.9180   53.1840   24.6780 C.3   223  LEU223      0.1693
     36  C         54.6700   52.3240   25.6840 C.2   223  LEU223      0.2593
     37  O         55.3250   51.3530   25.3050 O.2   223  LEU223     -0.2718
     38  CB        54.8870   53.7370   23.6230 C.3   223  LEU223      0.0284
     39  CG        54.1720   54.3730   22.4210 C.3   223  LEU223      0.0019
     40  CD1       55.1610   55.0720   21.5240 C.3   223  LEU223      0.0001
     41  CD2       53.4140   53.3000   21.6550 C.3   223  LEU223      0.0001
     42  N         54.5850   52.6690   26.9670 N.am  224  SER224     -0.1938
     43  CA        55.2710   51.8810   27.9900 C.3   224  SER224      0.2055
     44  C         54.5290   50.5790   28.2330 C.2   224  SER224      0.2643
     45  O         53.3080   50.5040   28.0990 O.2   224  SER224     -0.2714
     46  CB        55.3800   52.6500   29.3110 C.3   224  SER224      0.2130
     47  OG        56.1580   53.8170   29.1520 O.3   224  SER224     -0.2179
     48  N         55.2760   49.5460   28.5880 N.am  225  GLY225     -0.1954
     49  CA        54.6670   48.2630   28.8410 C.3   225  GLY225      0.1869
     50  C         54.6800   47.9740   30.3280 C.2   225  GLY225      0.2309
     51  O         54.8010   48.8730   31.1700 O.2   225  GLY225     -0.2863
     52  N         56.7620   45.4190   32.0840 N.3   227  LYS227     -0.1245
     53  CA        57.7850   44.4370   32.3470 C.3   227  LYS227      0.1561
     54  C         58.8430   45.2630   33.0240 C.2   227  LYS227      0.2260
     55  O         59.3630   46.2070   32.4270 O.2   227  LYS227     -0.2867
     56  CB        58.3320   43.8250   31.0690 C.3   227  LYS227      0.0271
     57  CG        59.4400   42.8120   31.3330 C.3   227  LYS227      0.0035
     58  CD        59.8450   42.0860   30.0680 C.3   227  LYS227      0.0206
     59  CE        60.9390   41.0830   30.3490 C.3   227  LYS227      0.1093
     60  NZ        62.1340   41.7720   30.9030 N.3   227  LYS227     -0.1314
     61  N         58.3650   47.3380   35.2190 N.3   229  ASN229     -0.1240
     62  CA        57.8300   48.6770   35.4030 C.3   229  ASN229      0.1653
     63  C         57.3430   48.8170   36.8430 C.2   229  ASN229      0.2266
     64  O         56.4650   48.0720   37.2890 O.2   229  ASN229     -0.2867
     65  CB        56.6710   48.9270   34.4340 C.3   229  ASN229      0.1155
     66  CG        56.2990   50.3950   34.3400 C.2   229  ASN229      0.2627
     67  OD1       56.2900   51.1120   35.3430 O.2   229  ASN229     -0.2716
     68  ND2       55.9860   50.8500   33.1320 N.am  229  ASN229     -0.0877
     69  N         56.9360   43.7130   27.5250 N.3   249  ALA249     -0.1231
     70  CA        57.6350   44.9460   27.1690 C.3   249  ALA249      0.1694
     71  C         56.7460   45.8050   26.2700 C.2   249  ALA249      0.2593
     72  O         55.8940   45.2820   25.5510 O.2   249  ALA249     -0.2718
     73  CB        58.9440   44.6150   26.4480 C.3   249  ALA249      0.0304
     74  N         56.9450   47.1200   26.3190 N.am  250  GLY250     -0.1942
     75  CA        56.1520   48.0240   25.5030 C.3   250  GLY250      0.2014
     76  C         56.7160   48.1160   24.1000 C.2   250  GLY250      0.2639
     77  O         57.7270   47.4890   23.7940 O.2   250  GLY250     -0.2714
     78  N         56.0560   48.8910   23.2450 N.am  251  GLY251     -0.1939
     79  CA        56.5080   49.0570   21.8710 C.3   251  GLY251      0.2014
     80  C         57.9280   49.5830   21.7930 C.2   251  GLY251      0.2640
     81  O         58.3170   50.4630   22.5470 O.2   251  GLY251     -0.2714
     82  N         58.7080   49.0500   20.8650 N.am  252  SER252     -0.1935
     83  CA        60.0980   49.4560   20.7160 C.3   252  SER252      0.2055
     84  C         60.5720   49.0860   19.3270 C.2   252  SER252      0.2642
     85  O         60.2410   48.0130   18.8080 O.2   252  SER252     -0.2714
     86  CB        60.9480   48.7320   21.7680 C.3   252  SER252      0.2130
     87  OG        62.3220   48.7640   21.4520 O.3   252  SER252     -0.2179
     88  N         61.3540   49.9720   18.7200 N.am  253  ALA253     -0.1977
     89  CA        61.8830   49.7080   17.3870 C.3   253  ALA253      0.1597
     90  C         62.9120   48.5640   17.4740 C.2   253  ALA253      0.2287
     91  O         63.4070   48.0630   16.4590 O.2   253  ALA253     -0.2864
     92  CB        62.4960   50.9840   16.7960 C.3   253  ALA253      0.0319
     93  N         68.1130   41.9270   25.6530 N.3   280  PHE280     -0.1241
     94  CA        66.9960   42.7450   25.2250 C.3   280  PHE280      0.1605
     95  C         66.6680   42.5770   23.7420 C.2   280  PHE280      0.2264
     96  O         65.5010   42.3570   23.3740 O.2   280  PHE280     -0.2867
     97  CB        67.2600   44.2210   25.5280 C.3   280  PHE280      0.0534
     98  CG        66.1670   45.1230   25.0430 C.ar  280  PHE280     -0.0203
     99  CD1       64.9090   45.1000   25.6480 C.ar  280  PHE280     -0.0042
    100  CD2       66.3720   45.9520   23.9430 C.ar  280  PHE280     -0.0042
    101  CE1       63.8630   45.8900   25.1650 C.ar  280  PHE280     -0.0003
    102  CE2       65.3300   46.7520   23.4420 C.ar  280  PHE280     -0.0003
    103  CZ        64.0720   46.7200   24.0570 C.ar  280  PHE280     -0.0000
    104  N         64.6540   62.7860   25.0100 N.3   343  ILE343     -0.1245
    105  CA        64.4940   62.1400   26.3040 C.3   343  ILE343      0.1561
    106  C         65.3650   62.7260   27.4090 C.2   343  ILE343      0.2260
    107  O         64.8430   63.1590   28.4330 O.2   343  ILE343     -0.2867
    108  CB        64.7400   60.6350   26.2230 C.3   343  ILE343      0.0252
    109  CG1       63.6260   59.9890   25.4020 C.3   343  ILE343      0.0019
    110  CG2       64.7610   60.0490   27.6140 C.3   343  ILE343      0.0019
    111  CD1       63.6060   58.4920   25.4680 C.3   343  ILE343      0.0001
@<TRIPOS>BOND
     1     4     3    2
     2     3     2    1
     3     1     2    1
     4     2     5    1
     5    91    90    2
     6    92    89    1
     7     5     6    1
     8    89    90    1
     9    89    88    1
    10     7     6   ar
    11     7     9   ar
    12     6     8   ar
    13     9    11   ar
    14     8    10   ar
    15    88    84   am
    16    85    84    2
    17    11    10   ar
    18    84    83    1
    19    83    82    1
    20    83    86    1
    21    82    80   am
    22    18    20   ar
    23    18    17   ar
    24    87    86    1
    25    20    22   ar
    26    40    39    1
    27    41    39    1
    28    80    79    1
    29    80    81    2
    30    79    78    1
    31    16    17    1
    32    16    13    1
    33    17    19   ar
    34    39    38    1
    35    22    21   ar
    36    13    12    1
    37    13    14    1
    38    19    21   ar
    39    78    76   am
    40    96    95    2
    41   102   100   ar
    42   102   103   ar
    43    38    35    1
    44    95    94    1
    45    77    76    2
    46   100    98   ar
    47   103   101   ar
    48    76    75    1
    49    14    15    2
    50    35    34    1
    51    35    36    1
    52    23    24    1
    53   104   105    1
    54    98    97    1
    55    98    99   ar
    56   101    99   ar
    57    94    97    1
    58    94    93    1
    59    37    36    2
    60   109   111    1
    61   109   108    1
    62    75    74    1
    63    72    71    2
    64    36    42   am
    65    24    27    1
    66    24    25    1
    67   108   105    1
    68   108   110    1
    69    71    74   am
    70    71    70    1
    71   105   106    1
    72    27    28    1
    73    73    70    1
    74    25    26    2
    75    42    43    1
    76    70    69    1
    77    28    29    1
    78   106   107    2
    79    29    30    1
    80    43    44    1
    81    43    46    1
    82    45    44    2
    83    44    48   am
    84    48    49    1
    85    49    50    1
    86    30    31    2
    87    47    46    1
    88    32    31    1
    89    58    59    1
    90    58    57    1
    91    31    33    1
    92    50    51    2
    93    59    60    1
    94    56    57    1
    95    56    53    1
    96    52    53    1
    97    53    54    1
    98    55    54    2
    99    68    66   am
   100    66    65    1
   101    66    67    2
   102    65    62    1
   103    61    62    1
   104    62    63    1
   105    63    64    2
