@<TRIPOS>MOLECULE
tmp/2d0vC00.pdb
 180 172 0 0 0
SMALL
GASTEIGER

@<TRIPOS>ATOM
      1  N         74.3170  -25.2720  -29.1510 N.3    55  GLU55      -0.1245
      2  CA        73.0390  -24.6600  -29.4200 C.3    55  GLU55       0.1567
      3  C         71.9770  -25.2810  -28.5600 C.2    55  GLU55       0.2260
      4  O         72.2980  -26.1080  -27.6760 O.2    55  GLU55      -0.2867
      5  CB        72.7070  -24.7540  -30.8870 C.3    55  GLU55       0.0388
      6  CG        73.5600  -23.8440  -31.6700 C.3    55  GLU55       0.1160
      7  CD        73.1910  -23.8240  -33.1740 C.2    55  GLU55       0.3649
      8  OE1       73.6280  -22.8750  -33.8550 O.co2  55  GLU55      -0.2457
      9  OE2       72.4800  -24.7210  -33.6990 O.co2  55  GLU55      -0.2457
     10  N         77.8180  -27.7800  -42.9210 N.3   103  CYS103     -0.1221
     11  CA        78.1450  -26.4610  -43.5160 C.3   103  CYS103      0.1808
     12  C         78.5340  -25.3360  -42.5280 C.2   103  CYS103      0.2601
     13  O         79.1660  -24.3470  -42.9080 O.2   103  CYS103     -0.2717
     14  CB        76.9170  -25.9480  -44.2710 C.3   103  CYS103      0.0970
     15  SG        75.5170  -25.7270  -43.1750 S.3   103  CYS103     -0.0800
     16  N         78.1300  -25.5200  -41.2680 N.am  104  CYS104     -0.1956
     17  CA        77.8520  -24.4420  -40.3600 C.3   104  CYS104      0.1843
     18  C         78.1090  -24.8390  -38.9520 C.2   104  CYS104      0.2625
     19  O         77.3420  -24.4600  -38.0320 O.2   104  CYS104     -0.2714
     20  CB        76.3700  -24.0970  -40.5020 C.3   104  CYS104      0.0997
     21  SG        75.9460  -23.8400  -42.2780 S.3   104  CYS104     -0.0797
     22  N         79.1740  -25.6260  -38.7950 N.am  105  ASP105     -0.1971
     23  CA        79.7860  -25.9370  -37.4890 C.3   105  ASP105      0.1709
     24  C         79.1080  -27.1520  -36.9980 C.2   105  ASP105      0.2293
     25  O         78.1180  -27.5220  -37.5710 O.2   105  ASP105     -0.2864
     26  CB        79.6440  -24.8260  -36.4170 C.3   105  ASP105      0.1436
     27  CG        80.5770  -25.0590  -35.2320 C.2   105  ASP105      0.3671
     28  OD1       80.3930  -24.4240  -34.1650 O.co2 105  ASP105     -0.2456
     29  OD2       81.4840  -25.9080  -35.3620 O.co2 105  ASP105     -0.2456
     30  N         77.1120  -28.2790  -34.6340 N.3   107  VAL107     -0.1245
     31  CA        76.0580  -28.0090  -33.6550 C.3   107  VAL107      0.1561
     32  C         74.9610  -29.0090  -33.6060 C.2   107  VAL107      0.2260
     33  O         74.6990  -29.7240  -34.5760 O.2   107  VAL107     -0.2867
     34  CB        75.4690  -26.5980  -33.7880 C.3   107  VAL107      0.0252
     35  CG1       76.6120  -25.6460  -33.6740 C.3   107  VAL107      0.0019
     36  CG2       74.7860  -26.3710  -35.0800 C.3   107  VAL107      0.0019
     37  N         70.8370  -29.0930  -31.5680 N.3   109  ARG109     -0.1245
     38  CA        69.9260  -28.1960  -30.9180 C.3   109  ARG109      0.1563
     39  C         69.0800  -28.7700  -29.8550 C.2   109  ARG109      0.2260
     40  O         68.1190  -28.0810  -29.3890 O.2   109  ARG109     -0.2867
     41  CB        68.9870  -27.5730  -31.8920 C.3   109  ARG109      0.0307
     42  CG        69.6640  -26.6250  -32.8770 C.3   109  ARG109      0.0489
     43  CD        68.7820  -25.9230  -33.9180 C.3   109  ARG109      0.2205
     44  NE        69.7310  -25.3440  -34.8570 N.pl3 109  ARG109     -0.0865
     45  CZ        70.2430  -26.0050  -35.8900 C.cat 109  ARG109      0.5346
     46  NH1       69.7960  -27.2050  -36.1980 N.pl3 109  ARG109      0.1354
     47  NH2       71.1960  -25.4760  -36.6050 N.pl3 109  ARG109      0.1354
     48  N         71.1020  -31.9650  -37.1150 N.3   159  THR159     -0.1218
     49  CA        71.5160  -30.9940  -36.1240 C.3   159  THR159      0.1862
     50  C         70.3360  -30.4850  -35.3380 C.2   159  THR159      0.2287
     51  O         70.5150  -29.9900  -34.2070 O.2   159  THR159     -0.2866
     52  CB        72.1770  -29.8110  -36.7540 C.3   159  THR159      0.1770
     53  OG1       71.2590  -29.1410  -37.6220 O.3   159  THR159     -0.2211
     54  CG2       73.3860  -30.2260  -37.5690 C.3   159  THR159      0.0375
     55  N         69.1120  -32.2620  -42.7320 N.3   174  SER174     -0.1202
     56  CA        70.1300  -31.2110  -42.9470 C.3   174  SER174      0.2020
     57  C         70.9900  -31.5780  -44.1550 C.2   174  SER174      0.2619
     58  O         71.2000  -32.7700  -44.4350 O.2   174  SER174     -0.2717
     59  CB        71.0720  -31.1040  -41.7220 C.3   174  SER174      0.2103
     60  OG        70.5310  -30.3270  -40.6660 O.3   174  SER174     -0.2182
     61  N         71.5060  -30.5820  -44.8570 N.am  175  GLY175     -0.1942
     62  CA        72.2670  -30.7850  -46.0850 C.3   175  GLY175      0.2014
     63  C         71.8900  -30.0060  -47.3920 C.2   175  GLY175      0.2639
     64  O         72.3030  -30.4590  -48.4790 O.2   175  GLY175     -0.2714
     65  N         71.1770  -28.8440  -47.3390 N.am  176  ALA176     -0.1963
     66  CA        70.7320  -28.1680  -48.5750 C.3   176  ALA176      0.1728
     67  C         71.9920  -27.6930  -49.2710 C.2   176  ALA176      0.2616
     68  O         72.1360  -27.6590  -50.5040 O.2   176  ALA176     -0.2715
     69  CB        69.8400  -27.0300  -48.2540 C.3   176  ALA176      0.0334
     70  N         72.9700  -27.3710  -48.4660 N.am  177  GLU177     -0.1977
     71  CA        74.1690  -26.8680  -49.0410 C.3   177  GLU177      0.1602
     72  C         74.8540  -27.9310  -49.8240 C.2   177  GLU177      0.2287
     73  O         75.8330  -27.6010  -50.4940 O.2   177  GLU177     -0.2864
     74  CB        75.1270  -26.3070  -47.9550 C.3   177  GLU177      0.0415
     75  CG        74.8150  -24.8160  -47.5990 C.3   177  GLU177      0.1163
     76  CD        73.3640  -24.6480  -47.1850 C.2   177  GLU177      0.3649
     77  OE1       72.5880  -24.1010  -47.9770 O.co2 177  GLU177     -0.2457
     78  OE2       72.9920  -25.1130  -46.0630 O.co2 177  GLU177     -0.2457
     79  N         65.2910  -29.0090  -46.8750 N.3   241  THR241     -0.1218
     80  CA        65.5630  -29.6950  -45.5640 C.3   241  THR241      0.1862
     81  C         64.9710  -28.9250  -44.4490 C.2   241  THR241      0.2287
     82  O         64.7700  -27.7350  -44.5930 O.2   241  THR241     -0.2866
     83  CB        67.0560  -29.8630  -45.2400 C.3   241  THR241      0.1770
     84  OG1       67.7020  -28.6420  -45.5090 O.3   241  THR241     -0.2211
     85  CG2       67.6850  -30.9320  -46.1870 C.3   241  THR241      0.0375
     86  N         65.6090  -28.2240  -40.5650 N.3   243  TRP243     -0.1241
     87  CA        66.5150  -28.4730  -39.4660 C.3   243  TRP243      0.1605
     88  C         66.2610  -27.4420  -38.3880 C.2   243  TRP243      0.2264
     89  O         67.1310  -27.2570  -37.5420 O.2   243  TRP243     -0.2867
     90  CB        67.9590  -28.3550  -39.9580 C.3   243  TRP243      0.0550
     91  CG        68.1770  -27.1220  -40.8150 C.ar  243  TRP243      0.0003
     92  CD1       67.9760  -27.0210  -42.1370 C.ar  243  TRP243      0.0946
     93  CD2       68.6780  -25.8470  -40.4050 C.ar  243  TRP243      0.0152
     94  NE1       68.3270  -25.7710  -42.6070 N.ar  243  TRP243     -0.2442
     95  CE2       68.7390  -25.0220  -41.5640 C.ar  243  TRP243      0.0810
     96  CE3       69.1030  -25.3180  -39.1770 C.ar  243  TRP243      0.0012
     97  CZ2       69.1680  -23.6780  -41.5280 C.ar  243  TRP243      0.0191
     98  CZ3       69.5570  -23.9870  -39.1350 C.ar  243  TRP243      0.0001
     99  CH2       69.5730  -23.1730  -40.2970 C.ar  243  TRP243      0.0015
    100  N         65.8530  -24.1270  -47.6990 N.3   261  ASN261     -0.1240
    101  CA        66.1180  -23.4660  -48.9080 C.3   261  ASN261      0.1653
    102  C         66.3080  -24.4980  -50.0070 C.2   261  ASN261      0.2266
    103  O         66.6570  -25.6950  -49.7400 O.2   261  ASN261     -0.2867
    104  CB        67.3810  -22.6160  -48.7160 C.3   261  ASN261      0.1155
    105  CG        68.5890  -23.4680  -48.4120 C.2   261  ASN261      0.2627
    106  OD1       68.7140  -24.0460  -47.3360 O.2   261  ASN261     -0.2716
    107  ND2       69.4510  -23.5900  -49.3610 N.am  261  ASN261     -0.0877
    108  N         69.4900  -17.7800  -50.0980 N.3   303  ASP303     -0.1239
    109  CA        69.6350  -18.6250  -48.9190 C.3   303  ASP303      0.1674
    110  C         68.7150  -18.3060  -47.7470 C.2   303  ASP303      0.2266
    111  O         69.0720  -18.5970  -46.5990 O.2   303  ASP303     -0.2867
    112  CB        71.1020  -18.7690  -48.4000 C.3   303  ASP303      0.1410
    113  CG        71.2870  -19.9950  -47.5070 C.2   303  ASP303      0.3668
    114  OD1       72.3270  -20.0900  -46.8140 O.co2 303  ASP303     -0.2456
    115  OD2       70.4210  -20.9040  -47.5010 O.co2 303  ASP303     -0.2456
    116  N         66.8390  -19.9710  -45.9550 N.3   305  ALA305     -0.1245
    117  CA        66.3020  -21.2240  -45.4300 C.3   305  ALA305      0.1562
    118  C         65.1030  -20.9880  -44.4740 C.2   305  ALA305      0.2260
    119  O         65.2290  -20.4580  -43.4170 O.2   305  ALA305     -0.2867
    120  CB        67.4150  -22.0000  -44.7380 C.3   305  ALA305      0.0290
    121  N         64.0470  -16.0320  -42.1160 N.3   331  ARG331     -0.1245
    122  CA        65.2970  -15.5440  -42.6190 C.3   331  ARG331      0.1563
    123  C         65.1000  -14.4010  -43.6020 C.2   331  ARG331      0.2260
    124  O         65.9780  -13.5610  -43.7520 O.2   331  ARG331     -0.2867
    125  CB        66.0170  -16.6450  -43.3710 C.3   331  ARG331      0.0307
    126  CG        66.4640  -17.7450  -42.5040 C.3   331  ARG331      0.0489
    127  CD        67.8330  -17.5680  -42.0550 C.3   331  ARG331      0.2205
    128  NE        68.7310  -17.9220  -43.1350 N.pl3 331  ARG331     -0.0865
    129  CZ        69.3200  -19.1050  -43.2350 C.cat 331  ARG331      0.5346
    130  NH1       70.1800  -19.3670  -44.2360 N.pl3 331  ARG331      0.1354
    131  NH2       69.0450  -20.0080  -42.3100 N.pl3 331  ARG331      0.1354
    132  N         67.3930  -16.1190  -37.6530 N.3   394  ASN394     -0.1225
    133  CA        67.9570  -17.3910  -38.0020 C.3   394  ASN394      0.1785
    134  C         67.4380  -18.3560  -36.9330 C.2   394  ASN394      0.2597
    135  O         66.2990  -18.1650  -36.4270 O.2   394  ASN394     -0.2718
    136  CB        69.4940  -17.2600  -38.1180 C.3   394  ASN394      0.1169
    137  CG        70.1640  -18.4820  -38.7740 C.2   394  ASN394      0.2627
    138  OD1       70.3180  -19.5120  -38.1180 O.2   394  ASN394     -0.2716
    139  ND2       70.5510  -18.3780  -40.0710 N.am  394  ASN394     -0.0877
    140  N         68.2470  -19.3700  -36.6170 N.am  395  GLN395     -0.1979
    141  CA        67.8810  -20.5300  -35.7890 C.3   395  GLN395      0.1601
    142  C         67.4290  -20.2480  -34.3350 C.2   395  GLN395      0.2287
    143  O         66.9450  -21.1440  -33.6530 O.2   395  GLN395     -0.2864
    144  CB        69.0190  -21.5540  -35.8060 C.3   395  GLN395      0.0394
    145  CG        70.3320  -21.1240  -35.0420 C.3   395  GLN395      0.0908
    146  CD        70.3470  -21.5710  -33.5920 C.2   395  GLN395      0.2608
    147  OE1       70.4970  -20.7560  -32.6950 O.2   395  GLN395     -0.2717
    148  NE2       70.1790  -22.8660  -33.3540 N.am  395  GLN395     -0.0878
    149  N         71.5540  -14.4330  -31.6960 N.3   476  TRP476     -0.1241
    150  CA        71.4740  -15.6040  -32.4700 C.3   476  TRP476      0.1605
    151  C         70.7040  -16.7210  -31.7760 C.2   476  TRP476      0.2264
    152  O         70.1190  -17.5220  -32.4710 O.2   476  TRP476     -0.2867
    153  CB        72.8670  -16.0510  -32.7770 C.3   476  TRP476      0.0550
    154  CG        72.9550  -17.0260  -33.9550 C.ar  476  TRP476      0.0003
    155  CD1       73.1630  -18.3760  -33.8870 C.ar  476  TRP476      0.0946
    156  CD2       72.9240  -16.6860  -35.3540 C.ar  476  TRP476      0.0152
    157  NE1       73.2500  -18.8860  -35.1600 N.ar  476  TRP476     -0.2442
    158  CE2       73.0900  -17.8850  -36.0770 C.ar  476  TRP476      0.0810
    159  CE3       72.7770  -15.4860  -36.0640 C.ar  476  TRP476      0.0012
    160  CZ2       73.1130  -17.9240  -37.4930 C.ar  476  TRP476      0.0191
    161  CZ3       72.7970  -15.5330  -37.4720 C.ar  476  TRP476      0.0001
    162  CH2       72.9740  -16.7350  -38.1620 C.ar  476  TRP476      0.0015
    163  N         78.3560  -22.1690  -34.4570 N.3   539  GLY539     -0.1210
    164  CA        77.2290  -21.9700  -35.3850 C.3   539  GLY539      0.1956
    165  C         77.7980  -21.1260  -36.5210 C.2   539  GLY539      0.2611
    166  O         79.0190  -20.9310  -36.5760 O.2   539  GLY539     -0.2717
    167  N         76.9530  -20.6310  -37.4260 N.am  540  TRP540     -0.1976
    168  CA        77.4720  -19.9020  -38.5900 C.3   540  TRP540      0.1640
    169  C         78.2460  -18.6230  -38.1980 C.2   540  TRP540      0.2290
    170  O         79.3420  -18.3590  -38.7350 O.2   540  TRP540     -0.2864
    171  CB        76.3230  -19.5340  -39.4820 C.3   540  TRP540      0.0576
    172  CG        76.6710  -19.2540  -40.8880 C.ar  540  TRP540      0.0006
    173  CD1       77.9040  -19.2370  -41.4420 C.ar  540  TRP540      0.0946
    174  CD2       75.7350  -18.9590  -41.9520 C.ar  540  TRP540      0.0152
    175  NE1       77.8050  -18.9540  -42.7930 N.ar  540  TRP540     -0.2442
    176  CE2       76.4830  -18.7730  -43.1210 C.ar  540  TRP540      0.0810
    177  CE3       74.3330  -18.9070  -42.0260 C.ar  540  TRP540      0.0012
    178  CZ2       75.8890  -18.4920  -44.3530 C.ar  540  TRP540      0.0191
    179  CZ3       73.7290  -18.6050  -43.2450 C.ar  540  TRP540      0.0001
    180  CH2       74.5170  -18.4000  -44.4000 C.ar  540  TRP540      0.0015
@<TRIPOS>BOND
     1    68    67    2
     2    73    72    2
     3   108   109    1
     4   102   103    2
     5   102   101    1
     6    72    71    1
     7   107   105   am
     8    67    66    1
     9    67    70   am
    10    71    70    1
    11    71    74    1
    12   109   112    1
    13   109   110    1
    14   101   104    1
    15   101   100    1
    16   104   105    1
    17    66    69    1
    18    66    65    1
    19    64    63    2
    20   105   106    2
    21   112   113    1
    22    77    76   ar
    23    74    75    1
    24   110   111    2
    25    75    76    1
    26   113   115   ar
    27   113   114   ar
    28    63    65   am
    29    63    62    1
    30    76    78   ar
    31    79    80    1
    32    85    83    1
    33    62    61    1
    34   116   117    1
    35    80    83    1
    36    80    81    1
    37    84    83    1
    38   117   120    1
    39   117   118    1
    40    61    57   am
    41    82    81    2
    42   118   119    2
    43    58    57    2
    44   180   178   ar
    45   180   179   ar
    46   178   176   ar
    47    14    11    1
    48    14    15    1
    49   130   129    1
    50    57    56    1
    51   124   123    2
    52   123   122    1
    53    11    10    1
    54    11    12    1
    55   125   122    1
    56   125   126    1
    57   179   177   ar
    58   129   128    2
    59   129   131    1
    60    15    21    1
    61   128   127    1
    62   176   175   ar
    63   176   174   ar
    64    56    55    1
    65    56    59    1
    66    13    12    2
    67   175   173   ar
    68   122   121    1
    69    94    92   ar
    70    94    95   ar
    71    12    16   am
    72   126   127    1
    73    21    20    1
    74    92    91   ar
    75   177   174   ar
    76   174   172   ar
    77    59    60    1
    78    95    97   ar
    79    95    93   ar
    80    97    99   ar
    81   173   172   ar
    82    16    17    1
    83   172   171    1
    84    91    93   ar
    85    91    90    1
    86    86    87    1
    87    20    17    1
    88    93    96   ar
    89    17    18    1
    90    99    98   ar
    91   139   137   am
    92    90    87    1
    93   171   168    1
    94    87    88    1
    95    96    98   ar
    96    18    22   am
    97    18    19    2
    98    22    23    1
    99   137   136    1
   100   137   138    2
   101   170   169    2
   102   168   169    1
   103   168   167    1
   104    88    89    2
   105   162   160   ar
   106   162   161   ar
   107   136   133    1
   108   133   132    1
   109   133   134    1
   110    53    52    1
   111    25    24    2
   112    54    52    1
   113   160   158   ar
   114    23    24    1
   115    23    26    1
   116   161   159   ar
   117   167   165   am
   118    48    49    1
   119   134   140   am
   120   134   135    2
   121    52    49    1
   122   140   141    1
   123    47    45    1
   124   166   165    2
   125   165   164    1
   126    26    27    1
   127    46    45    1
   128    49    50    1
   129   158   156   ar
   130   158   157   ar
   131   159   156   ar
   132    45    44    2
   133   144   141    1
   134   144   145    1
   135   141   142    1
   136   164   163    1
   137    29    27   ar
   138   156   154   ar
   139    50    51    2
   140    27    28   ar
   141   157   155   ar
   142    36    34    1
   143   145   146    1
   144    44    43    1
   145    30    31    1
   146    33    32    2
   147   142   143    2
   148   154   155   ar
   149   154   153    1
   150    43    42    1
   151     8     7   ar
   152    34    35    1
   153    34    31    1
   154     9     7   ar
   155    31    32    1
   156   146   148   am
   157   146   147    2
   158     7     6    1
   159    42    41    1
   160   153   150    1
   161   152   151    2
   162   150   151    1
   163   150   149    1
   164    41    38    1
   165     6     5    1
   166    37    38    1
   167    38    39    1
   168     5     2    1
   169    39    40    2
   170     2     1    1
   171     2     3    1
   172     3     4    2
