@<TRIPOS>MOLECULE
tmp/2d0wB00.pdb
 197 191 0 0 0
SMALL
GASTEIGER

@<TRIPOS>ATOM
      1  N         -4.3970   -8.1290   -0.7340 N.3    58  SER58      -0.1202
      2  CA        -5.7080   -7.5640   -0.3630 C.3    58  SER58       0.2020
      3  C         -6.4390   -6.8400   -1.4860 C.2    58  SER58       0.2619
      4  O         -7.6470   -6.5830   -1.3650 O.2    58  SER58      -0.2717
      5  CB        -5.4870   -6.5350    0.7620 C.3    58  SER58       0.2103
      6  OG        -5.0850   -7.2130    1.9230 O.3    58  SER58      -0.2182
      7  N         -5.7220   -6.5050   -2.5650 N.am   59  CYS59      -0.1969
      8  CA        -6.2420   -5.6020   -3.5880 C.3    59  CYS59       0.1712
      9  C         -6.2270   -6.1470   -5.0260 C.2    59  CYS59       0.2296
     10  O         -7.0820   -5.7690   -5.8300 O.2    59  CYS59      -0.2864
     11  CB        -5.4190   -4.3250   -3.5880 C.3    59  CYS59       0.0983
     12  SG        -5.2820   -3.6090   -1.9360 S.3    59  CYS59      -0.0798
     13  N         -9.1020   -7.6020   -7.2900 N.3    62  CYS62      -0.1221
     14  CA       -10.1060   -6.6860   -7.8600 C.3    62  CYS62       0.1808
     15  C         -9.5360   -5.5980   -8.7590 C.2    62  CYS62       0.2601
     16  O        -10.2270   -5.1300   -9.6560 O.2    62  CYS62      -0.2717
     17  CB       -10.9680   -6.0750   -6.7720 C.3    62  CYS62       0.0970
     18  SG       -12.1230   -7.2400   -5.9960 S.3    62  CYS62      -0.0800
     19  N         -8.2860   -5.2140   -8.5310 N.am   63  HIS63      -0.1975
     20  CA        -7.7000   -4.0720   -9.2110 C.3    63  HIS63       0.1656
     21  C         -6.5690   -4.4190  -10.1410 C.2    63  HIS63       0.2291
     22  O         -6.0240   -3.5370  -10.7820 O.2    63  HIS63      -0.2864
     23  CB        -7.2410   -3.0400   -8.1860 C.3    63  HIS63       0.0771
     24  CG        -8.3730   -2.3160   -7.5300 C.ar   63  HIS63       0.0820
     25  ND1       -9.0770   -1.3370   -8.1730 N.ar   63  HIS63      -0.2267
     26  CD2       -8.8900   -2.3970   -6.2820 C.ar   63  HIS63       0.1154
     27  CE1       -9.9880   -0.8340   -7.3620 C.ar   63  HIS63       0.1986
     28  NE2       -9.9000   -1.4610   -6.2040 N.ar   63  HIS63      -0.2212
     29  N        -11.9900   -6.0540  -11.7180 N.3    71  VAL71      -0.1231
     30  CA       -13.3590   -5.7760  -11.3230 C.3    71  VAL71       0.1692
     31  C        -13.5020   -4.3010  -10.8820 C.2    71  VAL71       0.2593
     32  O        -14.4970   -3.6460  -11.1960 O.2    71  VAL71      -0.2718
     33  CB       -13.9170   -6.8480  -10.3270 C.3    71  VAL71       0.0266
     34  CG1      -12.8570   -7.8450   -9.8990 C.3    71  VAL71       0.0020
     35  CG2      -14.6540   -6.2390   -9.1280 C.3    71  VAL71       0.0020
     36  N        -12.4800   -3.7690  -10.2180 N.am   72  GLY72      -0.1943
     37  CA       -12.4530   -2.3730   -9.8660 C.3    72  GLY72       0.1998
     38  C        -11.6450   -1.6730  -10.9230 C.2    72  GLY72       0.2481
     39  O        -10.9960   -2.3360  -11.7390 O.2    72  GLY72      -0.2729
     40  N        -11.6800   -0.3180  -10.9120 N.am   73  PRO73      -0.2715
     41  CA       -10.9280    0.5690  -11.8020 C.3    73  PRO73       0.1536
     42  C         -9.4540    0.3860  -11.6530 C.2    73  PRO73       0.2599
     43  O         -8.9870   -0.0830  -10.5900 O.2    73  PRO73      -0.2715
     44  CB       -11.2840    1.9730  -11.2800 C.3    73  PRO73       0.0310
     45  CG       -11.7830    1.7570   -9.8780 C.3    73  PRO73       0.0237
     46  CD       -12.5250    0.4510   -9.9810 C.3    73  PRO73       0.0939
     47  N         -8.7260    0.8060  -12.6820 N.am   74  GLY74      -0.1941
     48  CA        -7.2860    0.8040  -12.6570 C.3    74  GLY74       0.2014
     49  C         -6.8530    1.7780  -11.5720 C.2    74  GLY74       0.2638
     50  O         -7.5030    2.8240  -11.3590 O.2    74  GLY74      -0.2714
     51  N         -5.7590    1.4460  -10.9030 N.am   75  LEU75      -0.1977
     52  CA        -5.2310    2.3260   -9.8640 C.3    75  LEU75       0.1596
     53  C         -3.9180    2.8640  -10.3370 C.2    75  LEU75       0.2287
     54  O         -3.2850    3.6420   -9.6230 O.2    75  LEU75      -0.2864
     55  CB        -5.0670    1.5910   -8.5280 C.3    75  LEU75       0.0297
     56  CG        -6.3220    1.0170   -7.8780 C.3    75  LEU75       0.0022
     57  CD1       -5.9210    0.3450   -6.5690 C.3    75  LEU75       0.0001
     58  CD2       -7.4220    2.1040   -7.6340 C.3    75  LEU75       0.0001
     59  N         -6.2650    8.9070  -14.1210 N.3    79  TYR79      -0.1227
     60  CA        -7.6570    9.2530  -13.8910 C.3    79  TYR79       0.1736
     61  C         -8.2280    8.6540  -12.5970 C.2    79  TYR79       0.2595
     62  O         -8.0900    7.4600  -12.3400 O.2    79  TYR79      -0.2718
     63  CB        -8.5320    8.8450  -15.0920 C.3    79  TYR79       0.0548
     64  CG        -9.9780    9.2170  -14.8550 C.ar   79  TYR79      -0.0200
     65  CD1      -10.4260   10.4820  -15.2050 C.ar   79  TYR79      -0.0009
     66  CD2      -10.8760    8.3450  -14.2270 C.ar   79  TYR79      -0.0009
     67  CE1      -11.6910   10.8630  -14.9660 C.ar   79  TYR79       0.0417
     68  CE2      -12.1820    8.7390  -13.9670 C.ar   79  TYR79       0.0417
     69  CZ       -12.5590   10.0300  -14.3660 C.ar   79  TYR79       0.1957
     70  OH       -13.7900   10.5550  -14.1830 O.3    79  TYR79      -0.2866
     71  N         -8.9220    9.4770  -11.8150 N.am   80  TRP80      -0.1962
     72  CA        -9.4290    9.0670  -10.5270 C.3    80  TRP80       0.1771
     73  C        -10.8960    9.3990  -10.4590 C.2    80  TRP80       0.2620
     74  O        -11.2730   10.5550  -10.6770 O.2    80  TRP80      -0.2715
     75  CB        -8.6770    9.8190   -9.4230 C.3    80  TRP80       0.0590
     76  CG        -7.2590    9.3910   -9.3200 C.ar   80  TRP80       0.0006
     77  CD1       -6.1840    9.9990   -9.8530 C.ar   80  TRP80       0.0946
     78  CD2       -6.7830    8.2290   -8.6570 C.ar   80  TRP80       0.0152
     79  NE1       -5.0420    9.2980   -9.5730 N.ar   80  TRP80      -0.2442
     80  CE2       -5.3770    8.1960   -8.8370 C.ar   80  TRP80       0.0810
     81  CE3       -7.4080    7.1860   -7.9650 C.ar   80  TRP80       0.0012
     82  CZ2       -4.5820    7.1800   -8.3340 C.ar   80  TRP80       0.0191
     83  CZ3       -6.6060    6.1500   -7.4550 C.ar   80  TRP80       0.0001
     84  CH2       -5.2020    6.1730   -7.6340 C.ar   80  TRP80       0.0015
     85  N        -11.7240    8.4030  -10.1670 N.am   81  THR81      -0.1937
     86  CA       -13.1560    8.6230   -9.9880 C.3    81  THR81       0.2028
     87  C        -13.4230    9.6020   -8.8540 C.2    81  THR81       0.2642
     88  O        -14.3090   10.4930   -8.9570 O.2    81  THR81      -0.2714
     89  CB       -13.8880    7.2770   -9.8000 C.3    81  THR81       0.1808
     90  OG1      -13.8590    6.5710  -11.0510 O.3    81  THR81      -0.2208
     91  CG2      -15.3470    7.4210   -9.3080 C.3    81  THR81       0.0379
     92  N        -12.6610    9.4520   -7.7750 N.am   82  TYR82      -0.1973
     93  CA       -12.7410   10.3930   -6.6750 C.3    82  TYR82       0.1639
     94  C        -11.4790   11.2150   -6.7380 C.2    82  TYR82       0.2290
     95  O        -10.4360   10.7390   -6.3450 O.2    82  TYR82      -0.2864
     96  CB       -12.9150    9.6330   -5.3480 C.3    82  TYR82       0.0560
     97  CG       -14.1340    8.7630   -5.3780 C.ar   82  TYR82      -0.0198
     98  CD1      -15.4140    9.2960   -5.1520 C.ar   82  TYR82      -0.0009
     99  CD2      -14.0270    7.4030   -5.6730 C.ar   82  TYR82      -0.0009
    100  CE1      -16.5620    8.4650   -5.1980 C.ar   82  TYR82       0.0417
    101  CE2      -15.1540    6.5760   -5.7380 C.ar   82  TYR82       0.0417
    102  CZ       -16.4110    7.1200   -5.5030 C.ar   82  TYR82       0.1957
    103  OH       -17.4820    6.2900   -5.5570 O.3    82  TYR82      -0.2866
    104  N         -8.2960   11.2350   -4.5770 N.3    85  ASN85      -0.1240
    105  CA        -7.3470   10.0850   -4.5630 C.3    85  ASN85       0.1653
    106  C         -6.0170   10.3780   -5.1890 C.2    85  ASN85       0.2266
    107  O         -5.0610    9.5900   -5.0790 O.2    85  ASN85      -0.2867
    108  CB        -7.9670    8.8130   -5.1270 C.3    85  ASN85       0.1155
    109  CG        -9.0630    8.2780   -4.2550 C.2    85  ASN85       0.2627
    110  OD1       -9.0090    8.4110   -3.0340 O.2    85  ASN85      -0.2716
    111  ND2      -10.0820    7.6520   -4.8730 N.am   85  ASN85      -0.0877
    112  N         -6.4850    9.0910   -0.8780 N.3    91  LEU91      -0.1245
    113  CA        -6.2900    7.6670   -1.0810 C.3    91  LEU91       0.1561
    114  C         -6.5690    6.8770    0.2110 C.2    91  LEU91       0.2260
    115  O         -7.2980    5.8880    0.1830 O.2    91  LEU91      -0.2867
    116  CB        -4.8770    7.3640   -1.6000 C.3    91  LEU91       0.0270
    117  CG        -4.5720    5.9590   -2.1200 C.3    91  LEU91       0.0019
    118  CD1       -5.7120    5.3550   -2.9660 C.3    91  LEU91       0.0001
    119  CD2       -3.2650    5.9940   -2.9160 C.3    91  LEU91       0.0001
    120  N        -10.3010    6.4950    1.1630 N.3    94  THR94      -0.1203
    121  CA       -10.9930    5.5520    0.2690 C.3    94  THR94       0.1994
    122  C        -10.6580    4.0840    0.6250 C.2    94  THR94       0.2617
    123  O        -11.5200    3.2360    0.7160 O.2    94  THR94      -0.2717
    124  CB       -10.5600    5.7810   -1.1950 C.3    94  THR94       0.1784
    125  OG1      -10.6880    7.1670   -1.5640 O.3    94  THR94      -0.2211
    126  CG2      -11.3770    4.9430   -2.1120 C.3    94  THR94       0.0376
    127  N         -9.3800    3.7840    0.8200 N.am   95  ILE95      -0.1979
    128  CA        -9.0170    2.4360    1.3300 C.3    95  ILE95       0.1595
    129  C         -9.6080    2.1550    2.7460 C.2    95  ILE95       0.2287
    130  O        -10.1310    1.0810    3.0210 O.2    95  ILE95      -0.2864
    131  CB        -7.4910    2.2810    1.3680 C.3    95  ILE95       0.0276
    132  CG1       -6.9340    2.4690   -0.0540 C.3    95  ILE95       0.0022
    133  CG2       -7.1030    0.9070    1.9850 C.3    95  ILE95       0.0022
    134  CD1       -5.3030    2.6500   -0.1720 C.3    95  ILE95       0.0001
    135  N        -15.7550    2.8070   -0.5790 N.3    99  ALA99      -0.1231
    136  CA       -16.4670    3.7180   -1.4950 C.3    99  ALA99       0.1694
    137  C        -17.7880    3.0300   -1.8310 C.2    99  ALA99       0.2592
    138  O        -18.4320    2.5030   -0.9120 O.2    99  ALA99      -0.2718
    139  CB       -15.6360    4.0270   -2.7290 C.3    99  ALA99       0.0304
    140  N        -18.1540    2.9740   -3.1200 N.am  100  ASN100     -0.1974
    141  CA       -19.4220    2.3480   -3.5150 C.3   100  ASN100      0.1688
    142  C        -19.3050    0.8750   -3.8370 C.2   100  ASN100      0.2292
    143  O        -18.2120    0.3620   -4.0920 O.2   100  ASN100     -0.2864
    144  CB       -20.0690    3.1010   -4.6870 C.3   100  ASN100      0.1181
    145  CG       -20.6370    4.4550   -4.2630 C.2   100  ASN100      0.2629
    146  OD1      -20.5780    5.4310   -5.0150 O.2   100  ASN100     -0.2716
    147  ND2      -21.1710    4.5210   -3.0510 N.am  100  ASN100     -0.0877
    148  N        -18.9010   -2.8480   -4.3450 N.3   102  MET102     -0.1230
    149  CA       -17.9340   -3.8270   -3.8620 C.3   102  MET102      0.1702
    150  C        -16.7010   -3.2430   -3.1720 C.2   102  MET102      0.2592
    151  O        -15.9340   -3.9730   -2.5740 O.2   102  MET102     -0.2718
    152  CB       -17.5300   -4.7760   -5.0040 C.3   102  MET102      0.0401
    153  CG       -18.6990   -5.6140   -5.5040 C.3   102  MET102      0.0596
    154  SD       -19.3710   -6.6720   -4.2180 S.3   102  MET102     -0.1393
    155  CE       -20.8050   -5.7650   -3.6300 C.3   102  MET102      0.0692
    156  N        -16.4900   -1.9440   -3.2570 N.am  103  MET103     -0.1979
    157  CA       -15.3440   -1.3570   -2.5940 C.3   103  MET103      0.1605
    158  C        -15.7350   -1.1290   -1.1370 C.2   103  MET103      0.2287
    159  O        -16.2150   -0.0910   -0.7790 O.2   103  MET103     -0.2864
    160  CB       -14.9120   -0.0490   -3.2710 C.3   103  MET103      0.0413
    161  CG       -13.6220    0.5930   -2.7040 C.3   103  MET103      0.0598
    162  SD       -12.1850   -0.5650   -2.5900 S.3   103  MET103     -0.1393
    163  CE       -11.1700    0.3840   -1.4300 C.3   103  MET103      0.0692
    164  N        -11.3570   -1.0970    4.4060 N.3   106  HIS106     -0.1241
    165  CA       -10.3320   -2.0150    4.8580 C.3   106  HIS106      0.1621
    166  C         -9.6350   -1.4920    6.0920 C.2   106  HIS106      0.2264
    167  O         -8.6550   -2.1000    6.5550 O.2   106  HIS106     -0.2867
    168  CB        -9.3650   -2.3860    3.7320 C.3   106  HIS106      0.0745
    169  CG       -10.0600   -2.8850    2.5080 C.ar  106  HIS106      0.0817
    170  ND1      -10.3080   -4.2230    2.2870 N.ar  106  HIS106     -0.2268
    171  CD2      -10.6280   -2.2200    1.4710 C.ar  106  HIS106      0.1154
    172  CE1      -10.9710   -4.3630    1.1500 C.ar  106  HIS106      0.1986
    173  NE2      -11.1630   -3.1660    0.6260 N.ar  106  HIS106     -0.2212
    174  N         -6.3050   -3.6130    7.8970 N.3   110  LEU110     -0.1245
    175  CA        -4.9260   -3.2540    7.6470 C.3   110  LEU110      0.1561
    176  C         -4.3810   -2.3640    8.7160 C.2   110  LEU110      0.2260
    177  O         -4.9470   -1.3250    9.0180 O.2   110  LEU110     -0.2867
    178  CB        -4.7640   -2.5100    6.3240 C.3   110  LEU110      0.0270
    179  CG        -5.2680   -3.1440    5.0530 C.3   110  LEU110      0.0019
    180  CD1       -5.2220   -2.0800    3.9900 C.3   110  LEU110      0.0001
    181  CD2       -4.4370   -4.3800    4.6560 C.3   110  LEU110      0.0001
    182  N          1.3420    0.3910    1.5790 N.3   118  LEU118     -0.1245
    183  CA         0.3900    0.1160    0.5140 C.3   118  LEU118      0.1561
    184  C          0.2000    1.3190   -0.4280 C.2   118  LEU118      0.2260
    185  O          0.1910    1.1690   -1.6330 O.2   118  LEU118     -0.2867
    186  CB        -0.9520   -0.3470    1.1410 C.3   118  LEU118      0.0270
    187  CG        -2.1620   -0.5140    0.2250 C.3   118  LEU118      0.0019
    188  CD1       -1.8940   -1.5030   -0.9770 C.3   118  LEU118      0.0001
    189  CD2       -3.3850   -0.9170    0.9770 C.3   118  LEU118      0.0001
    190  N          1.0460    1.7600   -4.4740 N.3   122  ILE122     -0.1245
    191  CA         0.1040    2.3220   -5.4030 C.3   122  ILE122      0.1561
    192  C          0.7150    3.5180   -6.1780 C.2   122  ILE122      0.2260
    193  O          0.5880    3.6070   -7.4070 O.2   122  ILE122     -0.2867
    194  CB        -1.2560    2.6710   -4.7010 C.3   122  ILE122      0.0252
    195  CG1       -1.8980    1.3920   -4.0890 C.3   122  ILE122      0.0019
    196  CG2       -2.2200    3.3650   -5.7100 C.3   122  ILE122      0.0019
    197  CD1       -3.1380    1.6250   -3.1800 C.3   122  ILE122      0.0001
@<TRIPOS>BOND
     1    65    67   ar
     2    65    64   ar
     3    63    64    1
     4    63    60    1
     5    67    69   ar
     6    64    66   ar
     7    69    70    1
     8    69    68   ar
     9    66    68   ar
    10    59    60    1
    11    60    61    1
    12    47    48    1
    13    47    42   am
    14    48    49    1
    15    61    62    2
    16    61    71   am
    17    71    72    1
    18    41    42    1
    19    41    44    1
    20    41    40    1
    21    39    38    2
    22    29    30    1
    23    42    43    2
    24    49    50    2
    25    49    51   am
    26    30    31    1
    27    30    33    1
    28    44    45    1
    29    32    31    2
    30    90    89    1
    31    38    40   am
    32    38    37    1
    33    40    46    1
    34    51    52    1
    35    31    36   am
    36    22    21    2
    37    74    73    2
    38    72    73    1
    39    72    75    1
    40    73    85   am
    41    53    52    1
    42    53    54    2
    43    33    34    1
    44    33    35    1
    45    36    37    1
    46    85    86    1
    47    21    20    1
    48    86    89    1
    49    86    87    1
    50    46    45    1
    51    52    55    1
    52    77    79   ar
    53    77    76   ar
    54    89    91    1
    55    16    15    2
    56    79    80   ar
    57    75    76    1
    58    76    78   ar
    59    20    19    1
    60    20    23    1
    61    88    87    2
    62    87    92   am
    63    80    78   ar
    64    80    82   ar
    65    15    19   am
    66    15    14    1
    67    78    81   ar
    68    55    56    1
    69    82    84   ar
    70    23    24    1
    71    25    24   ar
    72    25    27   ar
    73    81    83   ar
    74    56    58    1
    75    56    57    1
    76    14    13    1
    77    14    17    1
    78    92    93    1
    79    84    83   ar
    80    24    26   ar
    81   193   192    2
    82    27    28   ar
    83    17    18    1
    84    94    93    1
    85    94    95    2
    86    93    96    1
    87    26    28   ar
    88   192   191    1
    89    10     9    2
    90   101    99   ar
    91   101   102   ar
    92   196   194    1
    93    99    97   ar
    94   103   102    1
    95   153   152    1
    96   153   154    1
    97   102   100   ar
    98   191   194    1
    99   191   190    1
   100    97    96    1
   101    97    98   ar
   102   100    98   ar
   103   106   107    2
   104   106   105    1
   105   108   105    1
   106   108   109    1
   107     9     8    1
   108   146   145    2
   109   152   149    1
   110   111   109   am
   111   194   195    1
   112   144   145    1
   113   144   141    1
   114   104   105    1
   115   148   149    1
   116   145   147   am
   117   109   110    2
   118   154   155    1
   119   143   142    2
   120   195   197    1
   121   149   150    1
   122   142   141    1
   123    11     8    1
   124    11    12    1
   125     8     7    1
   126   141   140    1
   127   160   161    1
   128   160   157    1
   129   156   150   am
   130   156   157    1
   131   150   151    2
   132   140   137   am
   133   118   117    1
   134   119   117    1
   135   139   136    1
   136   161   162    1
   137   157   158    1
   138   162   163    1
   139     7     3   am
   140   117   116    1
   141   126   124    1
   142   137   136    1
   143   137   138    2
   144   185   184    2
   145   116   113    1
   146   125   124    1
   147   136   135    1
   148     3     4    2
   149     3     2    1
   150   124   121    1
   151   158   159    2
   152   113   112    1
   153   113   114    1
   154   188   187    1
   155     1     2    1
   156   184   183    1
   157     2     5    1
   158   134   132    1
   159   132   131    1
   160   115   114    2
   161   187   189    1
   162   187   186    1
   163   121   122    1
   164   121   120    1
   165   183   186    1
   166   183   182    1
   167   122   123    2
   168   122   127   am
   169   173   172   ar
   170   173   171   ar
   171     5     6    1
   172   127   128    1
   173   172   170   ar
   174   128   131    1
   175   128   129    1
   176   131   133    1
   177   171   169   ar
   178   170   169   ar
   179   169   168    1
   180   129   130    2
   181   168   165    1
   182   180   179    1
   183   164   165    1
   184   181   179    1
   185   165   166    1
   186   179   178    1
   187   166   167    2
   188   178   175    1
   189   175   174    1
   190   175   176    1
   191   176   177    2
