@<TRIPOS>MOLECULE
tmp/2d1cA02.pdb
 120 112 0 0 0
SMALL
GASTEIGER

@<TRIPOS>ATOM
      1  N         22.4440   58.3570   65.5570 N.3    87  LEU87      -0.1245
      2  CA        21.4000   57.5250   66.1440 C.3    87  LEU87       0.1561
      3  C         20.1990   57.5760   65.2120 C.2    87  LEU87       0.2260
      4  O         19.8120   58.6420   64.7340 O.2    87  LEU87      -0.2867
      5  CB        20.9960   58.0410   67.5280 C.3    87  LEU87       0.0270
      6  CG        22.1020   58.2210   68.5740 C.3    87  LEU87       0.0019
      7  CD1       21.4670   58.7080   69.8700 C.3    87  LEU87       0.0001
      8  CD2       22.8480   56.9070   68.8120 C.3    87  LEU87       0.0001
      9  N         16.3960   57.5750   64.0800 N.3    89  THR89      -0.1218
     10  CA        15.0960   58.0180   64.5790 C.3    89  THR89       0.1862
     11  C         14.0410   57.5820   63.5600 C.2    89  THR89       0.2287
     12  O         14.1270   57.9290   62.3800 O.2    89  THR89      -0.2866
     13  CB        15.0290   59.5650   64.7210 C.3    89  THR89       0.1770
     14  OG1       16.0640   60.0080   65.6120 O.3    89  THR89      -0.2211
     15  CG2       13.6560   59.9930   65.2650 C.3    89  THR89       0.0375
     16  N         13.3540   61.3030   68.6740 N.3    97  SER97      -0.1217
     17  CA        14.7990   61.3510   68.4500 C.3    97  SER97       0.1889
     18  C         15.6290   61.3080   69.7260 C.2    97  SER97       0.2288
     19  O         15.5180   62.1950   70.5780 O.2    97  SER97      -0.2866
     20  CB        15.1670   62.6260   67.6820 C.3    97  SER97       0.2089
     21  OG        16.5760   62.7960   67.6350 O.3    97  SER97      -0.2183
     22  N         18.6920   61.7320   69.7180 N.3    99  ASN99      -0.1225
     23  CA        19.7310   62.7430   69.5210 C.3    99  ASN99       0.1785
     24  C         19.2540   64.0230   70.1950 C.2    99  ASN99       0.2597
     25  O         20.0050   64.6890   70.9150 O.2    99  ASN99      -0.2718
     26  CB        19.9530   62.9970   68.0320 C.3    99  ASN99       0.1169
     27  CG        20.4040   61.7550   67.3020 C.2    99  ASN99       0.2627
     28  OD1       21.4290   61.1650   67.6470 O.2    99  ASN99      -0.2716
     29  ND2       19.6380   61.3410   66.2930 N.am   99  ASN99      -0.0877
     30  N         17.9910   64.3620   69.9580 N.am  100  VAL100     -0.1980
     31  CA        17.4120   65.5510   70.5610 C.3   100  VAL100      0.1595
     32  C         17.2950   65.3290   72.0710 C.2   100  VAL100      0.2287
     33  O         17.4980   66.2520   72.8550 O.2   100  VAL100     -0.2864
     34  CB        16.0130   65.8710   69.9650 C.3   100  VAL100      0.0276
     35  CG1       15.3780   67.0260   70.7250 C.3   100  VAL100      0.0022
     36  CG2       16.1400   66.2420   68.4890 C.3   100  VAL100      0.0022
     37  N         20.6590   66.0270   73.8520 N.3   103  ARG103     -0.1245
     38  CA        20.9250   67.4650   73.9160 C.3   103  ARG103      0.1563
     39  C         20.0500   68.1700   74.9570 C.2   103  ARG103      0.2260
     40  O         20.5370   68.9900   75.7300 O.2   103  ARG103     -0.2867
     41  CB        20.6900   68.1060   72.5500 C.3   103  ARG103      0.0307
     42  CG        21.5730   67.5620   71.4410 C.3   103  ARG103      0.0489
     43  CD        20.9810   67.8930   70.0820 C.3   103  ARG103      0.2205
     44  NE        21.7570   67.2870   69.0040 N.pl3 103  ARG103     -0.0865
     45  CZ        21.2920   67.0560   67.7820 C.cat 103  ARG103      0.5346
     46  NH1       20.0400   67.3760   67.4680 N.pl3 103  ARG103      0.1354
     47  NH2       22.0830   66.5000   66.8740 N.pl3 103  ARG103      0.1354
     48  N         28.5080   73.9110   63.8900 N.3   113  ARG113     -0.1245
     49  CA        28.7340   73.1700   62.6540 C.3   113  ARG113      0.1563
     50  C         29.5840   73.9500   61.6560 C.2   113  ARG113      0.2260
     51  O         29.0730   74.7320   60.8560 O.2   113  ARG113     -0.2867
     52  CB        27.3840   72.7880   62.0440 C.3   113  ARG113      0.0307
     53  CG        26.5790   71.9050   62.9810 C.3   113  ARG113      0.0489
     54  CD        25.2320   71.4890   62.4150 C.3   113  ARG113      0.2205
     55  NE        24.7060   70.3540   63.1680 N.pl3 113  ARG113     -0.0865
     56  CZ        23.5720   69.7190   62.8890 C.cat 113  ARG113      0.5346
     57  NH1       22.8190   70.1060   61.8670 N.pl3 113  ARG113      0.1354
     58  NH2       23.2070   68.6790   63.6230 N.pl3 113  ARG113      0.1354
     59  N         23.7450   76.6350   65.5580 N.3   136  ARG136     -0.1245
     60  CA        22.3340   76.2590   65.6250 C.3   136  ARG136      0.1563
     61  C         21.8130   76.1260   67.0530 C.2   136  ARG136      0.2260
     62  O         22.3650   75.3650   67.8410 O.2   136  ARG136     -0.2867
     63  CB        22.1560   74.9300   64.8800 C.3   136  ARG136      0.0307
     64  CG        20.7950   74.2820   65.0130 C.3   136  ARG136      0.0489
     65  CD        20.8000   72.8760   64.4070 C.3   136  ARG136      0.2205
     66  NE        19.5500   72.1720   64.6790 N.pl3 136  ARG136     -0.0865
     67  CZ        19.3200   70.8950   64.3850 C.cat 136  ARG136      0.5346
     68  NH1       20.2550   70.1620   63.8010 N.pl3 136  ARG136      0.1354
     69  NH2       18.1520   70.3470   64.6900 N.pl3 136  ARG136      0.1354
     70  N         11.6260   71.3300   67.0360 N.3   143  TYR143     -0.1241
     71  CA        12.1670   69.9980   67.2460 C.3   143  TYR143      0.1605
     72  C         11.9490   69.3810   68.6220 C.2   143  TYR143      0.2264
     73  O         12.3720   68.2500   68.8740 O.2   143  TYR143     -0.2867
     74  CB        13.6490   69.9850   66.8260 C.3   143  TYR143      0.0534
     75  CG        13.8160   70.0950   65.3140 C.ar  143  TYR143     -0.0201
     76  CD1       12.7920   70.6200   64.5210 C.ar  143  TYR143     -0.0009
     77  CD2       14.9900   69.6850   64.6780 C.ar  143  TYR143     -0.0009
     78  CE1       12.9250   70.7390   63.1390 C.ar  143  TYR143      0.0417
     79  CE2       15.1350   69.8000   63.2860 C.ar  143  TYR143      0.0417
     80  CZ        14.0950   70.3310   62.5250 C.ar  143  TYR143      0.1957
     81  OH        14.2110   70.4720   61.1550 O.3   143  TYR143     -0.2866
     82  N         19.0190   73.5130   61.2540 N.3   247  ASP247     -0.1239
     83  CA        19.0850   72.1390   60.7770 C.3   247  ASP247      0.1674
     84  C         19.1970   72.1360   59.2570 C.2   247  ASP247      0.2266
     85  O         20.0240   71.4280   58.6800 O.2   247  ASP247     -0.2867
     86  CB        17.8270   71.3690   61.1990 C.3   247  ASP247      0.1410
     87  CG        17.8270   69.9400   60.6980 C.2   247  ASP247      0.3668
     88  OD1       18.8320   69.2450   60.9260 O.co2 247  ASP247     -0.2456
     89  OD2       16.8260   69.5100   60.0860 O.co2 247  ASP247     -0.2456
     90  N         29.7160   64.8250   67.6790 N.3   276  GLU276     -0.1231
     91  CA        29.1240   63.9050   66.7240 C.3   276  GLU276      0.1699
     92  C         29.1200   64.5170   65.3350 C.2   276  GLU276      0.2592
     93  O         29.2620   65.7280   65.1720 O.2   276  GLU276     -0.2718
     94  CB        27.6730   63.6290   67.1240 C.3   276  GLU276      0.0402
     95  CG        26.7460   64.8170   66.8310 C.3   276  GLU276      0.1161
     96  CD        25.3200   64.6200   67.3280 C.2   276  GLU276      0.3649
     97  OE1       24.7800   63.5060   67.1690 O.co2 276  GLU276     -0.2457
     98  OE2       24.7350   65.5870   67.8640 O.co2 276  GLU276     -0.2457
     99  N         28.9380   63.6720   64.3300 N.am  277  ALA277     -0.1966
    100  CA        28.8730   64.1450   62.9620 C.3   277  ALA277      0.1728
    101  C         27.4930   64.7670   62.7800 C.2   277  ALA277      0.2616
    102  O         26.5960   64.5460   63.5930 O.2   277  ALA277     -0.2715
    103  CB        29.0550   62.9780   61.9950 C.3   277  ALA277      0.0334
    104  N         27.3340   65.5510   61.7230 N.am  278  VAL278     -0.1963
    105  CA        26.0590   66.1850   61.4230 C.3   278  VAL278      0.1727
    106  C         25.1580   65.1650   60.7290 C.2   278  VAL278      0.2616
    107  O         23.9340   65.2790   60.7720 O.2   278  VAL278     -0.2715
    108  CB        26.2470   67.4020   60.4830 C.3   278  VAL278      0.0290
    109  CG1       24.8980   67.9540   60.0550 C.3   278  VAL278      0.0023
    110  CG2       27.0470   68.4840   61.1840 C.3   278  VAL278      0.0023
    111  N         25.7750   64.1580   60.1120 N.am  279  HIS279     -0.1973
    112  CA        25.0330   63.1350   59.3740 C.3   279  HIS279      0.1656
    113  C         24.3350   62.0690   60.2130 C.2   279  HIS279      0.2291
    114  O         24.5960   61.9190   61.4100 O.2   279  HIS279     -0.2864
    115  CB        25.9500   62.4480   58.3500 C.3   279  HIS279      0.0771
    116  CG        27.0060   61.5780   58.9610 C.ar  279  HIS279      0.0820
    117  ND1       26.7100   60.4470   59.6910 N.ar  279  HIS279     -0.2267
    118  CD2       28.3580   61.6700   58.9410 C.ar  279  HIS279      0.1154
    119  CE1       27.8340   59.8800   60.0950 C.ar  279  HIS279      0.1986
    120  NE2       28.8480   60.6020   59.6530 N.ar  279  HIS279     -0.2212
@<TRIPOS>BOND
     1   115   116    1
     2   115   112    1
     3    85    84    2
     4   118   116   ar
     5   118   120   ar
     6   116   117   ar
     7    84    83    1
     8   112   111    1
     9   112   113    1
    10   120   119   ar
    11   117   119   ar
    12   109   108    1
    13    89    87   ar
    14   111   106   am
    15   113   114    2
    16   108   110    1
    17   108   105    1
    18    87    88   ar
    19    87    86    1
    20   106   107    2
    21   106   105    1
    22    83    86    1
    23    83    82    1
    24    51    50    2
    25    81    80    1
    26   105   104    1
    27    50    49    1
    28   104   101   am
    29    57    56    1
    30   103   100    1
    31    52    49    1
    32    52    53    1
    33    12    11    2
    34    54    53    1
    35    54    55    1
    36    80    78   ar
    37    80    79   ar
    38    49    48    1
    39   101   100    1
    40   101   102    2
    41    56    55    2
    42    56    58    1
    43   100    99    1
    44    78    76   ar
    45    79    77   ar
    46    11    10    1
    47    68    67    1
    48     9    10    1
    49    99    92   am
    50    67    66    2
    51    67    69    1
    52    65    66    1
    53    65    64    1
    54    76    75   ar
    55    10    13    1
    56    77    75   ar
    57    13    15    1
    58    13    14    1
    59     4     3    2
    60    63    64    1
    61    63    60    1
    62    93    92    2
    63     3     2    1
    64    75    74    1
    65    92    91    1
    66     1     2    1
    67    59    60    1
    68    60    61    1
    69     2     5    1
    70    29    27   am
    71    91    94    1
    72    91    90    1
    73    74    71    1
    74    95    94    1
    75    95    96    1
    76    47    45    1
    77    70    71    1
    78    61    62    2
    79    97    96   ar
    80    71    72    1
    81    27    28    2
    82    27    26    1
    83    96    98   ar
    84    46    45    1
    85     5     6    1
    86    21    20    1
    87    20    17    1
    88    45    44    2
    89    26    23    1
    90    17    16    1
    91    17    18    1
    92    36    34    1
    93     6     8    1
    94     6     7    1
    95    72    73    2
    96    44    43    1
    97    23    22    1
    98    23    24    1
    99    18    19    2
   100    30    24   am
   101    30    31    1
   102    34    31    1
   103    34    35    1
   104    43    42    1
   105    24    25    2
   106    31    32    1
   107    42    41    1
   108    32    33    2
   109    41    38    1
   110    37    38    1
   111    38    39    1
   112    39    40    2
