@<TRIPOS>MOLECULE
tmp/2d1cA00.pdb
 213 205 0 0 0
SMALL
GASTEIGER

@<TRIPOS>ATOM
      1  N         25.4730   53.1240   60.0740 N.3    29  ILE29      -0.1245
      2  CA        26.8960   53.3260   59.8120 C.3    29  ILE29       0.1561
      3  C         27.6190   53.7720   61.0750 C.2    29  ILE29       0.2260
      4  O         28.8480   53.7190   61.1490 O.2    29  ILE29      -0.2867
      5  CB        27.1200   54.4020   58.7350 C.3    29  ILE29       0.0252
      6  CG1       26.4590   55.7180   59.1670 C.3    29  ILE29       0.0019
      7  CG2       26.5660   53.9250   57.4040 C.3    29  ILE29       0.0019
      8  CD1       26.7370   56.8880   58.2420 C.3    29  ILE29       0.0001
      9  N         31.7900   54.0920   61.6790 N.3    33  CYS33      -0.1235
     10  CA        32.4300   55.3960   61.7840 C.3    33  CYS33       0.1677
     11  C         33.1080   55.6020   63.1340 C.2    33  CYS33       0.2270
     12  O         34.1720   56.2210   63.2130 O.2    33  CYS33      -0.2867
     13  CB        31.4010   56.5040   61.5520 C.3    33  CYS33       0.0956
     14  SG        30.8580   56.6840   59.8420 S.3    33  CYS33      -0.0801
     15  N         29.6980   60.4210   70.0540 N.3    84  LYS84      -0.1245
     16  CA        28.6380   59.5080   69.6420 C.3    84  LYS84       0.1561
     17  C         28.5020   59.4070   68.1390 C.2    84  LYS84       0.2260
     18  O         28.7280   60.3710   67.4080 O.2    84  LYS84      -0.2867
     19  CB        27.2900   59.9570   70.2220 C.3    84  LYS84       0.0271
     20  CG        26.7930   61.2780   69.6430 C.3    84  LYS84       0.0035
     21  CD        25.3840   61.6230   70.1090 C.3    84  LYS84       0.0206
     22  CE        24.3260   60.7950   69.3890 C.3    84  LYS84       0.1093
     23  NZ        24.2380   61.1120   67.9330 N.3    84  LYS84      -0.1314
     24  N         26.0010   58.4700   64.7970 N.3    86  PRO86      -0.2102
     25  CA        24.6060   58.8490   64.5680 C.3    86  PRO86       0.1504
     26  C         23.6250   57.8590   65.1990 C.2    86  PRO86       0.2576
     27  O         23.9370   56.6790   65.3680 O.2    86  PRO86      -0.2718
     28  CB        24.5060   58.8790   63.0440 C.3    86  PRO86       0.0282
     29  CG        25.5160   57.8530   62.6160 C.3    86  PRO86       0.0208
     30  CD        26.6830   58.1780   63.5240 C.3    86  PRO86       0.0893
     31  N         22.4440   58.3570   65.5570 N.am   87  LEU87      -0.1966
     32  CA        21.4000   57.5250   66.1440 C.3    87  LEU87       0.1728
     33  C         20.1990   57.5760   65.2120 C.2    87  LEU87       0.2616
     34  O         19.8120   58.6420   64.7340 O.2    87  LEU87      -0.2715
     35  CB        20.9960   58.0410   67.5280 C.3    87  LEU87       0.0311
     36  CG        22.1020   58.2210   68.5740 C.3    87  LEU87       0.0022
     37  CD1       21.4670   58.7080   69.8700 C.3    87  LEU87       0.0001
     38  CD2       22.8480   56.9070   68.8120 C.3    87  LEU87       0.0001
     39  N         19.6100   56.4160   64.9580 N.am   88  GLU88      -0.1963
     40  CA        18.4660   56.3200   64.0680 C.3    88  GLU88       0.1733
     41  C         17.1580   56.7140   64.7440 C.2    88  GLU88       0.2617
     42  O         16.8570   56.2520   65.8420 O.2    88  GLU88      -0.2715
     43  CB        18.3630   54.8870   63.5430 C.3    88  GLU88       0.0429
     44  CG        17.2090   54.6380   62.6060 C.3    88  GLU88       0.1163
     45  CD        17.4050   53.3650   61.8170 C.2    88  GLU88       0.3649
     46  OE1       17.4920   52.2850   62.4390 O.co2  88  GLU88      -0.2457
     47  OE2       17.4850   53.4500   60.5710 O.co2  88  GLU88      -0.2457
     48  N         16.3960   57.5750   64.0800 N.am   89  THR89      -0.1951
     49  CA        15.0960   58.0180   64.5790 C.3    89  THR89       0.1897
     50  C         14.0410   57.5820   63.5600 C.2    89  THR89       0.2313
     51  O         14.1270   57.9290   62.3800 O.2    89  THR89      -0.2863
     52  CB        15.0290   59.5650   64.7210 C.3    89  THR89       0.1794
     53  OG1       16.0640   60.0080   65.6120 O.3    89  THR89      -0.2208
     54  CG2       13.6560   59.9930   65.2650 C.3    89  THR89       0.0378
     55  N         11.0360   57.3740   61.0710 N.3    91  VAL91      -0.1245
     56  CA        10.4280   58.4220   60.2700 C.3    91  VAL91       0.1561
     57  C          8.9120   58.3170   60.1370 C.2    91  VAL91       0.2260
     58  O          8.3980   57.3880   59.5110 O.2    91  VAL91      -0.2867
     59  CB        11.0580   58.4400   58.8590 C.3    91  VAL91       0.0252
     60  CG1       10.5260   59.6120   58.0560 C.3    91  VAL91       0.0019
     61  CG2       12.5790   58.5260   58.9720 C.3    91  VAL91       0.0019
     62  N         18.6920   61.7320   69.7180 N.3    99  ASN99      -0.1240
     63  CA        19.7310   62.7430   69.5210 C.3    99  ASN99       0.1653
     64  C         19.2540   64.0230   70.1950 C.2    99  ASN99       0.2266
     65  O         20.0050   64.6890   70.9150 O.2    99  ASN99      -0.2867
     66  CB        19.9530   62.9970   68.0320 C.3    99  ASN99       0.1155
     67  CG        20.4040   61.7550   67.3020 C.2    99  ASN99       0.2627
     68  OD1       21.4290   61.1650   67.6470 O.2    99  ASN99      -0.2716
     69  ND2       19.6380   61.3410   66.2930 N.am   99  ASN99      -0.0877
     70  N         20.6590   66.0270   73.8520 N.3   103  ARG103     -0.1245
     71  CA        20.9250   67.4650   73.9160 C.3   103  ARG103      0.1563
     72  C         20.0500   68.1700   74.9570 C.2   103  ARG103      0.2260
     73  O         20.5370   68.9900   75.7300 O.2   103  ARG103     -0.2867
     74  CB        20.6900   68.1060   72.5500 C.3   103  ARG103      0.0307
     75  CG        21.5730   67.5620   71.4410 C.3   103  ARG103      0.0489
     76  CD        20.9810   67.8930   70.0820 C.3   103  ARG103      0.2205
     77  NE        21.7570   67.2870   69.0040 N.pl3 103  ARG103     -0.0865
     78  CZ        21.2920   67.0560   67.7820 C.cat 103  ARG103      0.5346
     79  NH1       20.0400   67.3760   67.4680 N.pl3 103  ARG103      0.1354
     80  NH2       22.0830   66.5000   66.8740 N.pl3 103  ARG103      0.1354
     81  N         28.5080   73.9110   63.8900 N.3   113  ARG113     -0.1245
     82  CA        28.7340   73.1700   62.6540 C.3   113  ARG113      0.1563
     83  C         29.5840   73.9500   61.6560 C.2   113  ARG113      0.2260
     84  O         29.0730   74.7320   60.8560 O.2   113  ARG113     -0.2867
     85  CB        27.3840   72.7880   62.0440 C.3   113  ARG113      0.0307
     86  CG        26.5790   71.9050   62.9810 C.3   113  ARG113      0.0489
     87  CD        25.2320   71.4890   62.4150 C.3   113  ARG113      0.2205
     88  NE        24.7060   70.3540   63.1680 N.pl3 113  ARG113     -0.0865
     89  CZ        23.5720   69.7190   62.8890 C.cat 113  ARG113      0.5346
     90  NH1       22.8190   70.1060   61.8670 N.pl3 113  ARG113      0.1354
     91  NH2       23.2070   68.6790   63.6230 N.pl3 113  ARG113      0.1354
     92  N         27.7570   65.5930   53.5510 N.3   260  LEU260     -0.1231
     93  CA        27.6820   65.2230   54.9610 C.3   260  LEU260      0.1693
     94  C         28.8350   64.3890   55.5090 C.2   260  LEU260      0.2592
     95  O         29.0810   64.3890   56.7150 O.2   260  LEU260     -0.2718
     96  CB        26.3590   64.5020   55.2310 C.3   260  LEU260      0.0284
     97  CG        25.1160   65.3940   55.2090 C.3   260  LEU260      0.0019
     98  CD1       23.8550   64.5410   55.1840 C.3   260  LEU260      0.0001
     99  CD2       25.1350   66.3010   56.4330 C.3   260  LEU260      0.0001
    100  N         29.5410   63.6750   54.6400 N.am  261  GLY261     -0.1957
    101  CA        30.6520   62.8650   55.1070 C.3   261  GLY261      0.1869
    102  C         31.8050   63.7050   55.6330 C.2   261  GLY261      0.2309
    103  O         32.7620   63.1770   56.2010 O.2   261  GLY261     -0.2863
    104  N         29.7160   64.8250   67.6790 N.3   276  GLU276     -0.1231
    105  CA        29.1240   63.9050   66.7240 C.3   276  GLU276      0.1699
    106  C         29.1200   64.5170   65.3350 C.2   276  GLU276      0.2592
    107  O         29.2620   65.7280   65.1720 O.2   276  GLU276     -0.2718
    108  CB        27.6730   63.6290   67.1240 C.3   276  GLU276      0.0402
    109  CG        26.7460   64.8170   66.8310 C.3   276  GLU276      0.1161
    110  CD        25.3200   64.6200   67.3280 C.2   276  GLU276      0.3649
    111  OE1       24.7800   63.5060   67.1690 O.co2 276  GLU276     -0.2457
    112  OE2       24.7350   65.5870   67.8640 O.co2 276  GLU276     -0.2457
    113  N         28.9380   63.6720   64.3300 N.am  277  ALA277     -0.1966
    114  CA        28.8730   64.1450   62.9620 C.3   277  ALA277      0.1728
    115  C         27.4930   64.7670   62.7800 C.2   277  ALA277      0.2616
    116  O         26.5960   64.5460   63.5930 O.2   277  ALA277     -0.2715
    117  CB        29.0550   62.9780   61.9950 C.3   277  ALA277      0.0334
    118  N         27.3340   65.5510   61.7230 N.am  278  VAL278     -0.1963
    119  CA        26.0590   66.1850   61.4230 C.3   278  VAL278      0.1727
    120  C         25.1580   65.1650   60.7290 C.2   278  VAL278      0.2616
    121  O         23.9340   65.2790   60.7720 O.2   278  VAL278     -0.2715
    122  CB        26.2470   67.4020   60.4830 C.3   278  VAL278      0.0290
    123  CG1       24.8980   67.9540   60.0550 C.3   278  VAL278      0.0023
    124  CG2       27.0470   68.4840   61.1840 C.3   278  VAL278      0.0023
    125  N         25.7750   64.1580   60.1120 N.am  279  HIS279     -0.1959
    126  CA        25.0330   63.1350   59.3740 C.3   279  HIS279      0.1787
    127  C         24.3350   62.0690   60.2130 C.2   279  HIS279      0.2621
    128  O         24.5960   61.9190   61.4100 O.2   279  HIS279     -0.2715
    129  CB        25.9500   62.4480   58.3500 C.3   279  HIS279      0.0785
    130  CG        27.0060   61.5780   58.9610 C.ar  279  HIS279      0.0821
    131  ND1       26.7100   60.4470   59.6910 N.ar  279  HIS279     -0.2267
    132  CD2       28.3580   61.6700   58.9410 C.ar  279  HIS279      0.1154
    133  CE1       27.8340   59.8800   60.0950 C.ar  279  HIS279      0.1986
    134  NE2       28.8480   60.6020   59.6530 N.ar  279  HIS279     -0.2212
    135  N         23.4550   61.3230   59.5490 N.am  280  GLY280     -0.1940
    136  CA        22.6950   60.2770   60.2060 C.3   280  GLY280      0.2014
    137  C         23.2400   58.8670   60.1120 C.2   280  GLY280      0.2640
    138  O         24.4190   58.6580   59.8170 O.2   280  GLY280     -0.2714
    139  N         22.3650   57.8940   60.3520 N.am  281  SER281     -0.1935
    140  CA        22.7180   56.4780   60.4210 C.3   281  SER281      0.2055
    141  C         22.9250   55.8690   59.0290 C.2   281  SER281      0.2643
    142  O         23.5930   54.8580   58.8580 O.2   281  SER281     -0.2714
    143  CB        21.5940   55.7420   61.1510 C.3   281  SER281      0.2130
    144  OG        20.3660   55.9420   60.4490 O.3   281  SER281     -0.2179
    145  N         22.2670   56.5010   58.0340 N.am  282  ALA282     -0.1963
    146  CA        22.5000   56.1330   56.6340 C.3   282  ALA282      0.1713
    147  C         22.4840   54.6110   56.4100 C.2   282  ALA282      0.2458
    148  O         23.4870   53.9960   56.0740 O.2   282  ALA282     -0.2730
    149  CB        23.8520   56.7070   56.2090 C.3   282  ALA282      0.0333
    150  N         21.2830   54.0760   56.6820 N.am  283  PRO283     -0.2716
    151  CA        21.0400   52.6320   56.6230 C.3   283  PRO283      0.1536
    152  C         21.4460   51.8930   55.3490 C.2   283  PRO283      0.2598
    153  O         21.8200   50.7240   55.4180 O.2   283  PRO283     -0.2715
    154  CB        19.5410   52.5140   56.9270 C.3   283  PRO283      0.0310
    155  CG        18.9880   53.8610   56.5520 C.3   283  PRO283      0.0237
    156  CD        20.0520   54.7980   57.0470 C.3   283  PRO283      0.0939
    157  N         21.3920   52.5580   54.1990 N.am  284  LYS284     -0.1964
    158  CA        21.7560   51.8920   52.9500 C.3   284  LYS284      0.1728
    159  C         23.2510   51.6240   52.8230 C.2   284  LYS284      0.2616
    160  O         23.6770   50.9020   51.9220 O.2   284  LYS284     -0.2715
    161  CB        21.2840   52.7000   51.7410 C.3   284  LYS284      0.0311
    162  CG        22.0470   53.9850   51.4840 C.3   284  LYS284      0.0038
    163  CD        21.5420   54.6350   50.2120 C.3   284  LYS284      0.0206
    164  CE        22.2560   55.9340   49.9150 C.3   284  LYS284      0.1093
    165  NZ        21.7290   56.5720   48.6750 N.3   284  LYS284     -0.1314
    166  N         24.0460   52.1980   53.7200 N.am  285  TYR285     -0.1974
    167  CA        25.4930   52.0010   53.6830 C.3   285  TYR285      0.1639
    168  C         25.9930   51.1990   54.8760 C.2   285  TYR285      0.2290
    169  O         27.1360   50.7470   54.8910 O.2   285  TYR285     -0.2864
    170  CB        26.2200   53.3510   53.6450 C.3   285  TYR285      0.0560
    171  CG        26.0540   54.1260   52.3540 C.ar  285  TYR285     -0.0198
    172  CD1       26.4530   53.5810   51.1320 C.ar  285  TYR285     -0.0009
    173  CD2       25.5130   55.4110   52.3540 C.ar  285  TYR285     -0.0009
    174  CE1       26.3160   54.2940   49.9490 C.ar  285  TYR285      0.0417
    175  CE2       25.3700   56.1360   51.1730 C.ar  285  TYR285      0.0417
    176  CZ        25.7730   55.5710   49.9710 C.ar  285  TYR285      0.1957
    177  OH        25.6180   56.2720   48.7950 O.3   285  TYR285     -0.2866
    178  N         31.3700   53.5610   53.9360 N.3   291  ILE291     -0.1231
    179  CA        31.0390   54.8650   54.4950 C.3   291  ILE291      0.1692
    180  C         32.2630   55.7090   54.8650 C.2   291  ILE291      0.2592
    181  O         33.2780   55.1880   55.3340 O.2   291  ILE291     -0.2718
    182  CB        30.1130   54.6960   55.7330 C.3   291  ILE291      0.0266
    183  CG1       29.3010   55.9680   55.9520 C.3   291  ILE291      0.0019
    184  CG2       30.9210   54.3430   56.9630 C.3   291  ILE291      0.0020
    185  CD1       28.2680   56.2100   54.8690 C.3   291  ILE291      0.0001
    186  N         32.1540   57.0170   54.6400 N.am  292  ASN292     -0.1974
    187  CA        33.2270   57.9660   54.9460 C.3   292  ASN292      0.1688
    188  C         33.1680   58.3690   56.4190 C.2   292  ASN292      0.2292
    189  O         32.2150   59.0040   56.8580 O.2   292  ASN292     -0.2864
    190  CB        33.0810   59.2070   54.0630 C.3   292  ASN292      0.1181
    191  CG        34.1540   60.2430   54.3280 C.2   292  ASN292      0.2629
    192  OD1       34.9860   60.0810   55.2200 O.2   292  ASN292     -0.2716
    193  ND2       34.1360   61.3190   53.5540 N.am  292  ASN292     -0.0877
    194  N         32.0980   58.6450   48.6000 N.3   333  ASP333     -0.1239
    195  CA        31.3560   59.8950   48.5000 C.3   333  ASP333      0.1674
    196  C         32.1360   60.9770   47.7630 C.2   333  ASP333      0.2266
    197  O         31.5890   62.0220   47.4230 O.2   333  ASP333     -0.2867
    198  CB        30.9330   60.3800   49.8970 C.3   333  ASP333      0.1410
    199  CG        32.1100   60.6080   50.8290 C.2   333  ASP333      0.3668
    200  OD1       33.1110   59.8660   50.7310 O.co2 333  ASP333     -0.2456
    201  OD2       32.0250   61.5210   51.6800 O.co2 333  ASP333     -0.2456
    202  N         31.2290   55.2890   44.2930 N.3   337  TYR337     -0.1241
    203  CA        31.2770   54.0290   45.0200 C.3   337  TYR337      0.1605
    204  C         31.7780   52.8350   44.2170 C.2   337  TYR337      0.2264
    205  O         31.8400   51.7180   44.7300 O.2   337  TYR337     -0.2867
    206  CB        29.9000   53.7430   45.6170 C.3   337  TYR337      0.0534
    207  CG        29.6230   54.6060   46.8230 C.ar  337  TYR337     -0.0201
    208  CD1       30.0800   54.2300   48.0840 C.ar  337  TYR337     -0.0009
    209  CD2       28.9650   55.8290   46.6970 C.ar  337  TYR337     -0.0009
    210  CE1       29.8930   55.0480   49.1910 C.ar  337  TYR337      0.0417
    211  CE2       28.7750   56.6590   47.8020 C.ar  337  TYR337      0.0417
    212  CZ        29.2440   56.2590   49.0450 C.ar  337  TYR337      0.1957
    213  OH        29.0780   57.0680   50.1440 O.3   337  TYR337     -0.2866
@<TRIPOS>BOND
     1   204   205    2
     2   204   203    1
     3   202   203    1
     4   203   206    1
     5   206   207    1
     6   209   207   ar
     7   209   211   ar
     8   207   208   ar
     9   197   196    2
    10   196   195    1
    11   211   212   ar
    12   208   210   ar
    13   195   194    1
    14   195   198    1
    15   165   164    1
    16   177   176    1
    17   212   210   ar
    18   212   213    1
    19   198   199    1
    20   164   163    1
    21   174   176   ar
    22   174   172   ar
    23   176   175   ar
    24   163   162    1
    25   200   199   ar
    26   199   201   ar
    27   172   171   ar
    28   175   173   ar
    29   162   161    1
    30   161   158    1
    31   160   159    2
    32   173   171   ar
    33   171   170    1
    34   159   158    1
    35   159   166   am
    36   158   157    1
    37    92    93    1
    38   193   191   am
    39   170   167    1
    40   167   166    1
    41   167   168    1
    42   178   179    1
    43   190   191    1
    44   190   187    1
    45   157   152   am
    46   191   192    2
    47   179   180    1
    48   179   182    1
    49   100   101    1
    50   100    94   am
    51   186   180   am
    52   186   187    1
    53   180   181    2
    54   185   183    1
    55   168   169    2
    56   187   188    1
    57    93    96    1
    58    93    94    1
    59   101   102    1
    60    98    97    1
    61    97    96    1
    62    97    99    1
    63   152   153    2
    64   152   151    1
    65    94    95    2
    66   102   103    2
    67   182   183    1
    68   182   184    1
    69   148   147    2
    70   149   146    1
    71   147   146    1
    72   147   150   am
    73   188   189    2
    74   155   154    1
    75   155   156    1
    76   151   150    1
    77   151   154    1
    78   146   145    1
    79   150   156    1
    80     7     5    1
    81   145   141   am
    82    60    59    1
    83     8     6    1
    84   129   130    1
    85   129   126    1
    86     5     6    1
    87     5     2    1
    88   142   141    2
    89    59    61    1
    90    59    56    1
    91   132   130   ar
    92   132   134   ar
    93   130   131   ar
    94   141   140    1
    95   126   125    1
    96   126   127    1
    97    58    57    2
    98   135   136    1
    99   135   127   am
   100   134   133   ar
   101   131   133   ar
   102     2     1    1
   103     2     3    1
   104   138   137    2
   105    14    13    1
   106   123   122    1
   107   137   136    1
   108   137   139   am
   109   125   120   am
   110    57    56    1
   111   127   128    2
   112    56    55    1
   113   139   140    1
   114   140   143    1
   115   144   143    1
   116   122   124    1
   117   122   119    1
   118    47    45   ar
   119   120   121    2
   120   120   119    1
   121    84    83    2
   122     3     4    2
   123   119   118    1
   124    13    10    1
   125    83    82    1
   126     9    10    1
   127   118   115   am
   128    10    11    1
   129    45    46   ar
   130    45    44    1
   131    90    89    1
   132   117   114    1
   133    85    82    1
   134    85    86    1
   135    51    50    2
   136    87    86    1
   137    87    88    1
   138    44    43    1
   139    29    28    1
   140    29    30    1
   141    82    81    1
   142   115   114    1
   143   115   116    2
   144    89    88    2
   145    89    91    1
   146   114   113    1
   147    28    25    1
   148    11    12    2
   149    30    24    1
   150    43    40    1
   151    50    49    1
   152    40    41    1
   153    40    39    1
   154    48    49    1
   155    48    41   am
   156   113   106   am
   157    25    24    1
   158    25    26    1
   159    49    52    1
   160    52    54    1
   161    52    53    1
   162    34    33    2
   163    41    42    2
   164    39    33   am
   165   107   106    2
   166    26    27    2
   167    26    31   am
   168    33    32    1
   169   106   105    1
   170    31    32    1
   171    32    35    1
   172    69    67   am
   173   105   108    1
   174   105   104    1
   175   109   108    1
   176   109   110    1
   177    80    78    1
   178   111   110   ar
   179    67    68    2
   180    67    66    1
   181   110   112   ar
   182    18    17    2
   183    79    78    1
   184    35    36    1
   185    78    77    2
   186    23    22    1
   187    66    63    1
   188    17    16    1
   189    36    38    1
   190    36    37    1
   191    77    76    1
   192    22    21    1
   193    63    62    1
   194    63    64    1
   195    16    15    1
   196    16    19    1
   197    20    21    1
   198    20    19    1
   199    76    75    1
   200    64    65    2
   201    75    74    1
   202    74    71    1
   203    70    71    1
   204    71    72    1
   205    72    73    2
