@<TRIPOS>MOLECULE
tmp/2d1fA00.pdb
 155 147 0 0 0
SMALL
GASTEIGER

@<TRIPOS>ATOM
      1  N         -4.5590   43.0870   -6.8940 N.3    58  SER58      -0.1202
      2  CA        -4.6260   42.1010   -7.9450 C.3    58  SER58       0.2020
      3  C         -3.2990   42.0040   -8.6860 C.2    58  SER58       0.2619
      4  O         -2.4300   42.8590   -8.5210 O.2    58  SER58      -0.2717
      5  CB        -5.7340   42.4340   -8.9330 C.3    58  SER58       0.2103
      6  OG        -5.1830   42.9950  -10.0950 O.3    58  SER58      -0.2182
      7  N         -3.1750   40.9820   -9.5270 N.am   59  PHE59      -0.1961
      8  CA        -1.9320   40.6810  -10.2140 C.3    59  PHE59       0.1771
      9  C         -1.6020   41.6850  -11.3320 C.2    59  PHE59       0.2619
     10  O         -0.4790   41.6760  -11.8610 O.2    59  PHE59      -0.2715
     11  CB        -1.9700   39.2510  -10.7850 C.3    59  PHE59       0.0574
     12  CG        -2.7560   39.1370  -12.0650 C.ar   59  PHE59      -0.0200
     13  CD1       -2.1570   39.4270  -13.2980 C.ar   59  PHE59      -0.0042
     14  CD2       -4.1020   38.7580  -12.0420 C.ar   59  PHE59      -0.0042
     15  CE1       -2.8910   39.3520  -14.4840 C.ar   59  PHE59      -0.0003
     16  CE2       -4.8520   38.6660  -13.2290 C.ar   59  PHE59      -0.0003
     17  CZ        -4.2480   38.9630  -14.4410 C.ar   59  PHE59      -0.0000
     18  N         -2.5720   42.5140  -11.7210 N.am   60  LYS60      -0.1977
     19  CA        -2.3590   43.5230  -12.7880 C.3    60  LYS60       0.1596
     20  C         -1.1780   44.4580  -12.4620 C.2    60  LYS60       0.2287
     21  O         -0.5940   45.0670  -13.3480 O.2    60  LYS60      -0.2864
     22  CB        -3.6220   44.3730  -13.0300 C.3    60  LYS60       0.0298
     23  CG        -4.9250   43.6230  -13.2030 C.3    60  LYS60       0.0038
     24  CD        -5.1320   43.2100  -14.6030 C.3    60  LYS60       0.0206
     25  CE        -5.8410   41.8760  -14.6470 C.3    60  LYS60       0.1093
     26  NZ        -7.3220   41.9600  -14.5960 N.3    60  LYS60      -0.1314
     27  N        -10.0810   45.6580  -12.5300 N.3    86  ASN86      -0.1240
     28  CA        -8.8540   45.7780  -11.7490 C.3    86  ASN86       0.1653
     29  C         -7.6890   46.3790  -12.5500 C.2    86  ASN86       0.2266
     30  O         -6.7170   46.8640  -11.9610 O.2    86  ASN86      -0.2867
     31  CB        -8.4650   44.4250  -11.1430 C.3    86  ASN86       0.1155
     32  CG        -9.5360   43.8630  -10.2110 C.2    86  ASN86       0.2627
     33  OD1      -10.3500   44.6040   -9.6520 O.2    86  ASN86      -0.2716
     34  ND2       -9.5250   42.5510  -10.0240 N.am   86  ASN86      -0.0877
     35  N         -4.8930   44.2110  -22.2080 N.3   155  SER155     -0.1217
     36  CA        -4.3080   42.8640  -22.0380 C.3   155  SER155      0.1889
     37  C         -3.1400   42.5590  -22.9800 C.2   155  SER155      0.2288
     38  O         -2.1550   41.9180  -22.5950 O.2   155  SER155     -0.2866
     39  CB        -5.3700   41.7720  -22.2320 C.3   155  SER155      0.2089
     40  OG        -6.6750   42.2590  -21.9960 O.3   155  SER155     -0.2183
     41  N          3.1040   44.6570  -20.5730 N.3   160  ARG160     -0.1245
     42  CA         2.2880   44.1070  -19.4760 C.3   160  ARG160      0.1563
     43  C          2.5350   42.6210  -19.2650 C.2   160  ARG160      0.2260
     44  O          2.6530   42.1660  -18.1350 O.2   160  ARG160     -0.2867
     45  CB         0.8040   44.2960  -19.7450 C.3   160  ARG160      0.0307
     46  CG         0.2350   45.5840  -19.2820 C.3   160  ARG160      0.0489
     47  CD        -1.2790   45.5570  -19.4290 C.3   160  ARG160      0.2205
     48  NE        -1.8890   44.5150  -18.6190 N.pl3 160  ARG160     -0.0865
     49  CZ        -3.1990   44.3800  -18.4280 C.cat 160  ARG160      0.5346
     50  NH1       -4.0670   45.2200  -19.0020 N.pl3 160  ARG160      0.1354
     51  NH2       -3.6460   43.3880  -17.6620 N.pl3 160  ARG160      0.1354
     52  N          3.9670   40.5210  -16.1390 N.3   164  GLN164     -0.1245
     53  CA         3.1310   39.5040  -15.5140 C.3   164  GLN164      0.1566
     54  C          3.7550   38.1240  -15.4930 C.2   164  GLN164      0.2260
     55  O          3.3250   37.2750  -14.7010 O.2   164  GLN164     -0.2867
     56  CB         1.7640   39.4490  -16.1660 C.3   164  GLN164      0.0367
     57  CG         0.7950   40.4420  -15.5990 C.3   164  GLN164      0.0905
     58  CD        -0.2880   40.8410  -16.5890 C.2   164  GLN164      0.2608
     59  OE1       -0.8500   41.9340  -16.5150 O.2   164  GLN164     -0.2717
     60  NE2       -0.5670   39.9670  -17.5310 N.am  164  GLN164     -0.0878
     61  N         -7.3260   31.4670  -13.4170 N.3   185  PRO185     -0.2102
     62  CA        -8.6060   31.7980  -14.0310 C.3   185  PRO185      0.1504
     63  C         -8.3330   32.5320  -15.3240 C.2   185  PRO185      0.2576
     64  O         -7.2650   33.1150  -15.4580 O.2   185  PRO185     -0.2718
     65  CB        -9.2580   32.7410  -13.0150 C.3   185  PRO185      0.0282
     66  CG        -8.1700   33.2650  -12.1690 C.3   185  PRO185      0.0208
     67  CD        -6.8960   32.5230  -12.4790 C.3   185  PRO185      0.0893
     68  N         -9.2560   32.5000  -16.2820 N.am  186  VAL186     -0.1966
     69  CA        -8.9630   33.0950  -17.5650 C.3   186  VAL186      0.1727
     70  C        -10.1010   34.0120  -18.0140 C.2   186  VAL186      0.2617
     71  O        -11.2190   33.5540  -18.2470 O.2   186  VAL186     -0.2715
     72  CB        -8.6680   31.9790  -18.6080 C.3   186  VAL186      0.0290
     73  CG1       -8.4090   32.5510  -20.0230 C.3   186  VAL186      0.0023
     74  CG2       -7.4930   31.0920  -18.1470 C.3   186  VAL186      0.0023
     75  N         -9.8190   35.3060  -18.1590 N.am  187  GLY187     -0.1940
     76  CA       -10.7880   36.2190  -18.7750 C.3   187  GLY187      0.2014
     77  C        -10.3790   36.6590  -20.1790 C.2   187  GLY187      0.2639
     78  O        -10.9460   36.2020  -21.2020 O.2   187  GLY187     -0.2714
     79  N         -9.3990   37.5590  -20.2430 N.am  188  ASN188     -0.1958
     80  CA        -8.8370   37.9650  -21.5150 C.3   188  ASN188      0.1819
     81  C         -7.6590   37.0770  -21.9670 C.2   188  ASN188      0.2621
     82  O         -7.2040   37.1710  -23.1250 O.2   188  ASN188     -0.2715
     83  CB        -8.4890   39.4500  -21.4970 C.3   188  ASN188      0.1195
     84  CG        -9.6800   40.3300  -21.8810 C.2   188  ASN188      0.2630
     85  OD1      -10.1720   40.2730  -23.0120 O.2   188  ASN188     -0.2716
     86  ND2      -10.1430   41.1530  -20.9400 N.am  188  ASN188     -0.0877
     87  N         -7.1940   36.2140  -21.0560 N.am  189  ALA189     -0.1963
     88  CA        -6.1360   35.2380  -21.3210 C.3   189  ALA189      0.1728
     89  C         -4.7390   35.8480  -21.3530 C.2   189  ALA189      0.2617
     90  O         -3.7870   35.2080  -21.7960 O.2   189  ALA189     -0.2715
     91  CB        -6.4180   34.4760  -22.6270 C.3   189  ALA189      0.0334
     92  N         -4.6120   37.0840  -20.8920 N.am  190  GLY190     -0.1940
     93  CA        -3.3100   37.7290  -20.8230 C.3   190  GLY190      0.2014
     94  C         -2.4130   37.0580  -19.8030 C.2   190  GLY190      0.2639
     95  O         -1.1970   36.9910  -19.9880 O.2   190  GLY190     -0.2714
     96  N         -3.0240   36.5370  -18.7380 N.am  191  ASN191     -0.1958
     97  CA        -2.3000   35.9480  -17.6140 C.3   191  ASN191      0.1819
     98  C         -1.8080   34.5370  -17.9270 C.2   191  ASN191      0.2621
     99  O         -0.6280   34.2380  -17.7490 O.2   191  ASN191     -0.2715
    100  CB        -3.1770   35.9340  -16.3570 C.3   191  ASN191      0.1195
    101  CG        -2.3900   36.2120  -15.0950 C.2   191  ASN191      0.2630
    102  OD1       -1.2110   36.5600  -15.1550 O.2   191  ASN191     -0.2716
    103  ND2       -3.0470   36.0830  -13.9390 N.am  191  ASN191     -0.0877
    104  N         -2.7000   33.6740  -18.4100 N.am  192  ILE192     -0.1977
    105  CA        -2.2920   32.3380  -18.7940 C.3   192  ILE192      0.1596
    106  C         -1.1450   32.4610  -19.7790 C.2   192  ILE192      0.2287
    107  O         -0.1910   31.7060  -19.6880 O.2   192  ILE192     -0.2864
    108  CB        -3.4530   31.4880  -19.3640 C.3   192  ILE192      0.0276
    109  CG1       -2.9730   30.0620  -19.6520 C.3   192  ILE192      0.0022
    110  CG2       -4.0260   32.1140  -20.6170 C.3   192  ILE192      0.0022
    111  CD1       -3.9470   28.9860  -19.2330 C.3   192  ILE192      0.0001
    112  N        -14.4660   39.6250  -13.0760 N.3   240  ALA240     -0.1231
    113  CA       -13.1630   39.8140  -13.6980 C.3   240  ALA240      0.1694
    114  C        -12.9370   38.8640  -14.8680 C.2   240  ALA240      0.2591
    115  O        -12.0600   39.1100  -15.7150 O.2   240  ALA240     -0.2718
    116  CB       -12.0470   39.6890  -12.6590 C.3   240  ALA240      0.0304
    117  N        -13.7200   37.7860  -14.9130 N.am  241  ILE241     -0.1980
    118  CA       -13.6610   36.8500  -16.0320 C.3   241  ILE241      0.1595
    119  C        -14.9780   36.8310  -16.8180 C.2   241  ILE241      0.2287
    120  O        -15.2640   35.8950  -17.5620 O.2   241  ILE241     -0.2864
    121  CB       -13.1570   35.4290  -15.6220 C.3   241  ILE241      0.0276
    122  CG1      -14.0870   34.7580  -14.6070 C.3   241  ILE241      0.0022
    123  CG2      -11.7390   35.5090  -15.0700 C.3   241  ILE241      0.0022
    124  CD1      -13.6670   33.3180  -14.2550 C.3   241  ILE241      0.0001
    125  N        -11.0900   36.8400   -4.1340 N.3   287  GLU287     -0.1245
    126  CA       -12.1130   37.3800   -5.0280 C.3   287  GLU287      0.1567
    127  C        -12.8040   36.2150   -5.7690 C.2   287  GLU287      0.2260
    128  O        -12.1850   35.1630   -5.9570 O.2   287  GLU287     -0.2867
    129  CB       -11.3790   38.2460   -6.0500 C.3   287  GLU287      0.0388
    130  CG       -12.0340   39.5170   -6.3860 C.3   287  GLU287      0.1160
    131  CD       -12.0500   39.7720   -7.8880 C.2   287  GLU287      0.3649
    132  OE1      -11.8280   38.7880   -8.6370 O.co2 287  GLU287     -0.2457
    133  OE2      -12.3050   40.9370   -8.3230 O.co2 287  GLU287     -0.2457
    134  N        -13.4600   35.5730   -9.0050 N.3   289  ALA289     -0.1231
    135  CA       -12.6360   35.1270  -10.1330 C.3   289  ALA289      0.1694
    136  C        -11.4550   34.2740   -9.6910 C.2   289  ALA289      0.2592
    137  O        -11.1000   33.3260  -10.3660 O.2   289  ALA289     -0.2718
    138  CB       -12.1450   36.3040  -10.9560 C.3   289  ALA289      0.0304
    139  N        -10.8460   34.6130   -8.5630 N.am  290  SER290     -0.1952
    140  CA        -9.7470   33.8380   -8.0170 C.3   290  SER290      0.1924
    141  C        -10.2540   32.4800   -7.5250 C.2   290  SER290      0.2314
    142  O         -9.5690   31.4480   -7.6850 O.2   290  SER290     -0.2863
    143  CB        -9.0450   34.6210   -6.8990 C.3   290  SER290      0.2116
    144  OG        -8.6980   35.9400   -7.3100 O.3   290  SER290     -0.2180
    145  N         -5.8980   35.3980   -7.8740 N.3   317  THR317     -0.1203
    146  CA        -5.5070   36.6010   -8.6220 C.3   317  THR317      0.1994
    147  C         -5.8660   37.9610   -7.9870 C.2   317  THR317      0.2618
    148  O         -5.3280   39.0100   -8.4130 O.2   317  THR317     -0.2717
    149  CB        -6.1340   36.5920  -10.0460 C.3   317  THR317      0.1784
    150  OG1       -7.5160   36.2430   -9.9520 O.3   317  THR317     -0.2211
    151  CG2       -5.4490   35.5910  -10.9910 C.3   317  THR317      0.0376
    152  N         -6.7640   37.9630   -6.9950 N.am  318  GLY318     -0.1956
    153  CA        -7.2390   39.2010   -6.4230 C.3   318  GLY318      0.1869
    154  C         -7.7540   39.0920   -5.0090 C.2   318  GLY318      0.2309
    155  O         -8.2560   38.0460   -4.5990 O.2   318  GLY318     -0.2863
@<TRIPOS>BOND
     1    82    81    2
     2    85    84    2
     3    37    38    2
     4    37    36    1
     5    91    88    1
     6    39    36    1
     7    39    40    1
     8    35    36    1
     9    81    80    1
    10    81    87   am
    11    84    83    1
    12    84    86   am
    13    90    89    2
    14    80    83    1
    15    80    79    1
    16    89    88    1
    17    89    92   am
    18    88    87    1
    19    78    77    2
    20    92    93    1
    21    93    94    1
    22   110   108    1
    23    41    42    1
    24    79    77   am
    25    77    76    1
    26    73    72    1
    27    95    94    2
    28    94    96   am
    29   106   107    2
    30   106   105    1
    31    45    42    1
    32    45    46    1
    33   109   108    1
    34   109   111    1
    35    42    43    1
    36    47    46    1
    37    47    48    1
    38   108   105    1
    39    43    44    2
    40    50    49    1
    41   105   104    1
    42    76    75    1
    43    96    97    1
    44    48    49    2
    45    72    74    1
    46    72    69    1
    47    49    51    1
    48   104    98   am
    49    71    70    2
    50    75    70   am
    51    70    69    1
    52    98    99    2
    53    98    97    1
    54    97   100    1
    55    69    68    1
    56   120   119    2
    57    60    58   am
    58   119   118    1
    59    58    59    2
    60    58    57    1
    61   100   101    1
    62    68    63   am
    63    56    57    1
    64    56    53    1
    65    52    53    1
    66   118   121    1
    67   118   117    1
    68   115   114    2
    69   121   123    1
    70   121   122    1
    71    53    54    1
    72    54    55    2
    73    64    63    2
    74    63    62    1
    75   102   101    2
    76   101   103   am
    77   117   114   am
    78   114   113    1
    79    25    24    1
    80    25    26    1
    81   122   124    1
    82    24    23    1
    83    15    17   ar
    84    15    13   ar
    85    17    16   ar
    86    62    61    1
    87    62    65    1
    88   113   112    1
    89   113   116    1
    90    61    67    1
    91    21    20    2
    92    13    12   ar
    93    16    14   ar
    94    23    22    1
    95    22    19    1
    96    65    66    1
    97    19    20    1
    98    19    18    1
    99    29    30    2
   100    29    28    1
   101    27    28    1
   102    67    66    1
   103    12    14   ar
   104    12    11    1
   105    10     9    2
   106    28    31    1
   107    18     9   am
   108     9     8    1
   109    31    32    1
   110   151   149    1
   111   138   135    1
   112    11     8    1
   113   137   136    2
   114     8     7    1
   115    32    34   am
   116    32    33    2
   117   135   136    1
   118   135   134    1
   119     6     5    1
   120   149   150    1
   121   149   146    1
   122   136   139   am
   123     7     3   am
   124     5     2    1
   125     3     4    2
   126     3     2    1
   127   132   131   ar
   128   146   147    1
   129   146   145    1
   130   139   140    1
   131   148   147    2
   132   133   131   ar
   133   140   141    1
   134   140   143    1
   135   147   152   am
   136     2     1    1
   137   131   130    1
   138   142   141    2
   139   144   143    1
   140   152   153    1
   141   153   154    1
   142   130   129    1
   143   129   126    1
   144   128   127    2
   145   127   126    1
   146   126   125    1
   147   154   155    2
