@<TRIPOS>MOLECULE
tmp/2d1jA00.pdb
 186 184 0 0 0
SMALL
GASTEIGER

@<TRIPOS>ATOM
      1  N         14.1410   11.7240   14.3620 N.3    42  HIS42      -0.1241
      2  CA        12.6790   11.7380   14.4330 C.3    42  HIS42       0.1621
      3  C         12.0930   13.0970   14.7920 C.2    42  HIS42       0.2264
      4  O         10.9410   13.3700   14.4360 O.2    42  HIS42      -0.2867
      5  CB        12.1180   10.5940   15.2980 C.3    42  HIS42       0.0745
      6  CG        11.9700   10.8950   16.7580 C.ar   42  HIS42       0.0817
      7  ND1       12.8400   10.3900   17.7100 N.ar   42  HIS42      -0.2268
      8  CD2       10.9840   11.5350   17.4500 C.ar   42  HIS42       0.1154
      9  CE1       12.4210   10.7410   18.9200 C.ar   42  HIS42       0.1986
     10  NE2       11.3150   11.4680   18.7840 N.ar   42  HIS42      -0.2212
     11  N         11.8430    5.4380   10.4820 N.3    82  LYS82      -0.1231
     12  CA        10.7560    5.9680   11.2650 C.3    82  LYS82       0.1693
     13  C          9.9500    4.8810   11.9350 C.2    82  LYS82       0.2592
     14  O          9.3250    5.0900   12.9720 O.2    82  LYS82      -0.2718
     15  CB         9.8480    6.7940   10.3480 C.3    82  LYS82       0.0285
     16  CG         8.5340    7.2200   11.0250 C.3    82  LYS82       0.0035
     17  CD         8.8720    8.5320   11.6950 C.3    82  LYS82       0.0206
     18  CE         7.6990    9.1430   12.4500 C.3    82  LYS82       0.1093
     19  NZ         8.3070   10.1610   13.3840 N.3    82  LYS82      -0.1314
     20  N          9.9750    3.7080   11.3400 N.am   83  GLU83      -0.1966
     21  CA         9.1440    2.6040   11.8030 C.3    83  GLU83       0.1733
     22  C          9.6770    2.0360   13.1040 C.2    83  GLU83       0.2617
     23  O          8.9100    1.6780   13.9880 O.2    83  GLU83      -0.2715
     24  CB         9.0760    1.5160   10.7150 C.3    83  GLU83       0.0429
     25  CG         8.8780    2.0580    9.2850 C.3    83  GLU83       0.1163
     26  CD         7.4540    2.4980    8.9790 C.2    83  GLU83       0.3649
     27  OE1        6.5260    2.1870    9.7470 O.co2  83  GLU83      -0.2457
     28  OE2        7.2740    3.1490    7.9400 O.co2  83  GLU83      -0.2457
     29  N         11.0000    1.9580   13.2090 N.am   84  THR84      -0.1937
     30  CA        11.6440    1.3530   14.3460 C.3    84  THR84       0.2028
     31  C         12.4450    2.3670   15.1860 C.2    84  THR84       0.2642
     32  O         12.9580    2.0120   16.2510 O.2    84  THR84      -0.2714
     33  CB        12.6280    0.3080   13.8640 C.3    84  THR84       0.1808
     34  OG1       13.6330    0.9540   13.0660 O.3    84  THR84      -0.2208
     35  CG2       11.9010   -0.7710   13.0350 C.3    84  THR84       0.0379
     36  N         12.5620    3.6040   14.7030 N.am   85  TYR85      -0.1973
     37  CA        13.4540    4.6000   15.3220 C.3    85  TYR85       0.1639
     38  C         14.9240    4.1880   15.3510 C.2    85  TYR85       0.2290
     39  O         15.6210    4.5810   16.2950 O.2    85  TYR85      -0.2864
     40  CB        13.0720    4.8610   16.7760 C.3    85  TYR85       0.0560
     41  CG        11.7880    5.5650   16.9770 C.ar   85  TYR85      -0.0198
     42  CD1       11.7560    6.9410   17.0390 C.ar   85  TYR85      -0.0009
     43  CD2       10.5910    4.8500   17.1250 C.ar   85  TYR85      -0.0009
     44  CE1       10.5950    7.6140   17.2310 C.ar   85  TYR85       0.0417
     45  CE2        9.4050    5.4960   17.3170 C.ar   85  TYR85       0.0417
     46  CZ         9.4000    6.8790   17.3540 C.ar   85  TYR85       0.1957
     47  OH         8.2280    7.5720   17.5370 O.3    85  TYR85      -0.2866
     48  N          2.7640   10.8440   31.3220 N.3   135  GLU135     -0.1245
     49  CA         2.3040   10.3940   30.0120 C.3   135  GLU135      0.1567
     50  C          1.1830   11.2750   29.4400 C.2   135  GLU135      0.2260
     51  O          1.2420   11.7630   28.2930 O.2   135  GLU135     -0.2867
     52  CB         1.8370    8.9450   30.1210 C.3   135  GLU135      0.0388
     53  CG         1.8250    8.2120   28.8140 C.3   135  GLU135      0.1160
     54  CD         1.8090    6.7170   28.9970 C.2   135  GLU135      0.3649
     55  OE1        2.3230    6.1840   30.0150 O.co2 135  GLU135     -0.2457
     56  OE2        1.2660    6.0570   28.1000 O.co2 135  GLU135     -0.2457
     57  N          9.2420   -3.7360   21.0460 N.3   162  PHE162     -0.1241
     58  CA         9.8310   -3.3120   19.7830 C.3   162  PHE162      0.1605
     59  C         11.2600   -3.7860   19.8020 C.2   162  PHE162      0.2264
     60  O         11.7890   -4.1310   20.8470 O.2   162  PHE162     -0.2867
     61  CB         9.7160   -1.8040   19.6520 C.3   162  PHE162      0.0534
     62  CG         8.2940   -1.3290   19.5920 C.ar  162  PHE162     -0.0203
     63  CD1        7.5800   -1.3980   18.4030 C.ar  162  PHE162     -0.0042
     64  CD2        7.6460   -0.8640   20.7430 C.ar  162  PHE162     -0.0042
     65  CE1        6.2380   -0.9790   18.3420 C.ar  162  PHE162     -0.0003
     66  CE2        6.3160   -0.4330   20.7020 C.ar  162  PHE162     -0.0003
     67  CZ         5.6030   -0.4910   19.4970 C.ar  162  PHE162     -0.0000
     68  N         11.2400    8.8450   34.3600 N.3   179  ASP179     -0.1225
     69  CA        11.5050    8.5840   32.9620 C.3   179  ASP179      0.1805
     70  C         11.4920    9.9090   32.2170 C.2   179  ASP179      0.2598
     71  O         11.0550   10.9020   32.7350 O.2   179  ASP179     -0.2718
     72  CB        10.3610    7.7120   32.4070 C.3   179  ASP179      0.1424
     73  CG        10.7890    6.8670   31.1990 C.2   179  ASP179      0.3668
     74  OD1       11.9830    6.8850   30.8310 O.co2 179  ASP179     -0.2456
     75  OD2        9.9250    6.2000   30.5860 O.co2 179  ASP179     -0.2456
     76  N         12.0010    9.8900   30.9990 N.am  180  ALA180     -0.1966
     77  CA        11.8630   10.9320   30.0580 C.3   180  ALA180      0.1728
     78  C         10.4720   10.7020   29.5430 C.2   180  ALA180      0.2616
     79  O          9.8210    9.7410   29.9310 O.2   180  ALA180     -0.2715
     80  CB        12.8970   10.7180   28.8920 C.3   180  ALA180      0.0334
     81  N         10.0330   11.5620   28.6420 N.am  181  CYS181     -0.1954
     82  CA         8.6840   11.5180   28.1220 C.3   181  CYS181      0.1843
     83  C          8.6270   12.4880   26.9240 C.2   181  CYS181      0.2625
     84  O          9.6430   13.0990   26.5390 O.2   181  CYS181     -0.2714
     85  CB         7.6590   11.8730   29.2190 C.3   181  CYS181      0.0997
     86  SG         5.9060   11.4880   28.7910 S.3   181  CYS181     -0.0797
     87  N          7.4670   12.6090   26.3060 N.am  182  GLN182     -0.1977
     88  CA         7.3480   13.3890   25.0690 C.3   182  GLN182      0.1601
     89  C          7.8170   14.8250   25.2690 C.2   182  GLN182      0.2287
     90  O          7.5610   15.4470   26.3420 O.2   182  GLN182     -0.2864
     91  CB         5.8930   13.4000   24.6280 C.3   182  GLN182      0.0394
     92  CG         5.6190   13.7790   23.1800 C.3   182  GLN182      0.0908
     93  CD         4.1320   13.6400   22.8310 C.2   182  GLN182      0.2608
     94  OE1        3.7190   13.8130   21.6850 O.2   182  GLN182     -0.2717
     95  NE2        3.3250   13.3100   23.8310 N.am  182  GLN182     -0.0878
     96  N         12.6450   14.1610   23.7790 N.3   185  SER185     -0.1217
     97  CA        13.3340   13.5300   22.6660 C.3   185  SER185      0.1889
     98  C         14.3660   14.4080   22.0010 C.2   185  SER185      0.2288
     99  O         14.1210   15.6000   21.8020 O.2   185  SER185     -0.2866
    100  CB        12.3060   13.1410   21.6150 C.3   185  SER185      0.2089
    101  OG        11.4240   12.2000   22.1760 O.3   185  SER185     -0.2183
    102  N         17.9200   11.0770   23.7360 N.3   203  VAL203     -0.1231
    103  CA        16.5950   10.6170   24.0930 C.3   203  VAL203      0.1692
    104  C         15.8120   10.2630   22.8120 C.2   203  VAL203      0.2593
    105  O         15.6870   11.0710   21.8960 O.2   203  VAL203     -0.2718
    106  CB        15.9030   11.6980   24.8490 C.3   203  VAL203      0.0266
    107  CG1       14.5420   11.1800   25.4670 C.3   203  VAL203      0.0020
    108  CG2       16.7780   12.1770   25.9650 C.3   203  VAL203      0.0020
    109  N         15.3430    9.0310   22.7130 N.am  204  SER204     -0.1938
    110  CA        14.7810    8.5580   21.4580 C.3   204  SER204      0.2055
    111  C         13.2980    8.1480   21.6480 C.2   204  SER204      0.2643
    112  O         12.4120    8.7770   21.0880 O.2   204  SER204     -0.2714
    113  CB        15.6300    7.3800   20.9430 C.3   204  SER204      0.2130
    114  OG        15.3910    7.0880   19.5710 O.3   204  SER204     -0.2179
    115  N         13.0350    7.1070   22.4390 N.am  205  TRP205     -0.1959
    116  CA        11.6780    6.6020   22.5990 C.3   205  TRP205      0.1771
    117  C         11.4410    5.7710   23.8450 C.2   205  TRP205      0.2620
    118  O         12.3680    5.2980   24.4820 O.2   205  TRP205     -0.2715
    119  CB        11.2290    5.7650   21.3880 C.3   205  TRP205      0.0590
    120  CG        12.0480    4.5540   21.0530 C.ar  205  TRP205      0.0006
    121  CD1       13.1970    4.5200   20.3000 C.ar  205  TRP205      0.0946
    122  CD2       11.7490    3.1700   21.3640 C.ar  205  TRP205      0.0152
    123  NE1       13.6530    3.2230   20.1660 N.ar  205  TRP205     -0.2442
    124  CE2       12.7840    2.3730   20.7850 C.ar  205  TRP205      0.0810
    125  CE3       10.7200    2.5330   22.0590 C.ar  205  TRP205      0.0012
    126  CZ2       12.8020    0.9680   20.8760 C.ar  205  TRP205      0.0191
    127  CZ3       10.7450    1.1410   22.1660 C.ar  205  TRP205      0.0001
    128  CH2       11.7890    0.3740   21.5880 C.ar  205  TRP205      0.0015
    129  N         10.1600    5.5410   24.1170 N.am  206  GLY206     -0.1940
    130  CA         9.7210    4.5900   25.1290 C.3   206  GLY206      0.2014
    131  C          8.2850    4.2610   24.7730 C.2   206  GLY206      0.2639
    132  O          7.6340    5.0000   24.0000 O.2   206  GLY206     -0.2714
    133  N          7.8100    3.1380   25.2980 N.am  207  GLU207     -0.1963
    134  CA         6.3900    2.7550   25.2410 C.3   207  GLU207      0.1733
    135  C          5.6370    3.5140   26.3670 C.2   207  GLU207      0.2617
    136  O          5.6850    3.1290   27.5550 O.2   207  GLU207     -0.2715
    137  CB         6.2890    1.2260   25.3740 C.3   207  GLU207      0.0429
    138  CG         6.9210    0.4480   24.1930 C.3   207  GLU207      0.1163
    139  CD         6.9280   -1.0760   24.4220 C.2   207  GLU207      0.3649
    140  OE1        8.0130   -1.6360   24.6160 O.co2 207  GLU207     -0.2457
    141  OE2        5.8400   -1.7220   24.4780 O.co2 207  GLU207     -0.2457
    142  N          5.0120    4.6330   26.0030 N.am  208  GLY208     -0.1940
    143  CA         4.5050    5.5930   27.0010 C.3   208  GLY208      0.2014
    144  C          5.6770    6.3120   27.7050 C.2   208  GLY208      0.2639
    145  O          6.7020    6.6320   27.0840 O.2   208  GLY208     -0.2714
    146  N          5.5310    6.5550   29.0000 N.am  209  CYS209     -0.1967
    147  CA         6.5590    7.2080   29.7980 C.3   209  CYS209      0.1712
    148  C          6.3870    6.6140   31.1760 C.2   209  CYS209      0.2296
    149  O          5.2910    6.5950   31.6900 O.2   209  CYS209     -0.2864
    150  CB         6.2990    8.7140   29.8750 C.3   209  CYS209      0.0983
    151  SG         6.0650    9.5440   28.2940 S.3   209  CYS209     -0.0798
    152  N          6.2100    3.7440   32.4960 N.3   211  ARG211     -0.1245
    153  CA         5.4390    2.5210   32.7200 C.3   211  ARG211      0.1563
    154  C          6.2810    1.4970   33.4320 C.2   211  ARG211      0.2260
    155  O          7.5080    1.3860   33.1930 O.2   211  ARG211     -0.2867
    156  CB         4.9460    1.9230   31.4340 C.3   211  ARG211      0.0307
    157  CG         4.1290    2.8790   30.6440 C.3   211  ARG211      0.0489
    158  CD         3.4380    2.1550   29.5310 C.3   211  ARG211      0.2205
    159  NE         2.3490    2.9760   29.0310 N.pl3 211  ARG211     -0.0865
    160  CZ         1.9190    2.9430   27.7800 C.cat 211  ARG211      0.5346
    161  NH1        2.5020    2.1200   26.9130 N.pl3 211  ARG211      0.1354
    162  NH2        0.9250    3.7290   27.3960 N.pl3 211  ARG211      0.1354
    163  N         13.5550    3.5380   29.1790 N.3   216  GLY216     -0.1210
    164  CA        13.7470    4.5170   28.1310 C.3   216  GLY216      0.1956
    165  C         14.8060    3.9790   27.2080 C.2   216  GLY216      0.2612
    166  O         15.7230    3.2790   27.6520 O.2   216  GLY216     -0.2717
    167  N         14.6440    4.2440   25.9070 N.am  217  ILE217     -0.1965
    168  CA        15.5830    3.8000   24.8970 C.3   217  ILE217      0.1727
    169  C         16.2700    5.0700   24.3060 C.2   217  ILE217      0.2616
    170  O         15.6070    6.0270   23.8760 O.2   217  ILE217     -0.2715
    171  CB        14.8120    3.0860   23.7240 C.3   217  ILE217      0.0290
    172  CG1       13.7000    2.1270   24.2570 C.3   217  ILE217      0.0022
    173  CG2       15.7730    2.4510   22.7390 C.3   217  ILE217      0.0023
    174  CD1       14.1670    0.9010   25.1290 C.3   217  ILE217      0.0001
    175  N         17.5880    5.0330   24.2710 N.am  218  TYR218     -0.1974
    176  CA        18.4210    6.1600   23.8890 C.3   218  TYR218      0.1639
    177  C         19.2780    5.7320   22.7030 C.2   218  TYR218      0.2290
    178  O         19.6900    4.5590   22.6620 O.2   218  TYR218     -0.2864
    179  CB        19.3640    6.4230   25.0570 C.3   218  TYR218      0.0560
    180  CG        18.5610    6.8900   26.2340 C.ar  218  TYR218     -0.0198
    181  CD1       18.3690    8.2330   26.4230 C.ar  218  TYR218     -0.0009
    182  CD2       17.9290    5.9840   27.1150 C.ar  218  TYR218     -0.0009
    183  CE1       17.6100    8.7020   27.4600 C.ar  218  TYR218      0.0417
    184  CE2       17.1510    6.4410   28.1860 C.ar  218  TYR218      0.0417
    185  CZ        16.9970    7.8100   28.3440 C.ar  218  TYR218      0.1957
    186  OH        16.2810    8.3810   29.3460 O.3   218  TYR218     -0.2866
@<TRIPOS>BOND
     1    28    26   ar
     2    26    25    1
     3    26    27   ar
     4    25    24    1
     5    15    16    1
     6    15    12    1
     7    11    12    1
     8    24    21    1
     9    16    17    1
    10    12    13    1
    11    20    21    1
    12    20    13   am
    13    17    18    1
    14    21    22    1
    15    13    14    2
    16    18    19    1
    17    35    33    1
    18    34    33    1
    19    22    29   am
    20    22    23    2
    21    29    30    1
    22    33    30    1
    23    30    31    1
    24     1     2    1
    25     2     3    1
    26     2     5    1
    27     4     3    2
    28    36    31   am
    29    36    37    1
    30    31    32    2
    31     5     6    1
    32    37    38    1
    33    37    40    1
    34    38    39    2
    35     6     8   ar
    36     6     7   ar
    37    40    41    1
    38    41    42   ar
    39    41    43   ar
    40    42    44   ar
    41    43    45   ar
    42    44    46   ar
    43    45    46   ar
    44    46    47    1
    45     8    10   ar
    46     7     9   ar
    47    65    63   ar
    48    65    67   ar
    49    63    62   ar
    50    10     9   ar
    51    67    66   ar
    52   114   113    1
    53    62    61    1
    54    62    64   ar
    55    61    58    1
    56    58    59    1
    57    58    57    1
    58    59    60    2
    59   123   121   ar
    60   123   124   ar
    61   121   120   ar
    62    66    64   ar
    63   124   126   ar
    64   124   122   ar
    65   126   128   ar
    66   113   110    1
    67   120   122   ar
    68   120   119    1
    69   112   111    2
    70   122   125   ar
    71   119   116    1
    72   110   111    1
    73   110   109    1
    74   128   127   ar
    75   100   101    1
    76   100    97    1
    77   111   115   am
    78    94    93    2
    79    99    98    2
    80   105   104    2
    81    98    97    1
    82   125   127   ar
    83   115   116    1
    84   116   117    1
    85   178   177    2
    86    97    96    1
    87   177   176    1
    88   109   104   am
    89   173   171    1
    90   104   103    1
    91    93    92    1
    92    93    95   am
    93    92    91    1
    94   171   172    1
    95   171   168    1
    96   102   103    1
    97   117   129   am
    98   117   118    2
    99   170   169    2
   100   176   175    1
   101   176   179    1
   102   132   131    2
   103   103   106    1
   104   129   130    1
   105   138   139    1
   106   138   137    1
   107   172   174    1
   108   175   169   am
   109   169   168    1
   110   139   141   ar
   111   139   140   ar
   112    91    88    1
   113   131   130    1
   114   131   133   am
   115   106   107    1
   116   106   108    1
   117   168   167    1
   118   179   180    1
   119    88    89    1
   120    88    87    1
   121   134   133    1
   122   134   137    1
   123   134   135    1
   124    89    90    2
   125   167   165   am
   126   142   135   am
   127   142   143    1
   128   180   181   ar
   129   180   182   ar
   130    87    83   am
   131   135   136    2
   132   181   183   ar
   133    84    83    2
   134   161   160    1
   135    83    82    1
   136   143   144    1
   137   145   144    2
   138   182   184   ar
   139   165   166    2
   140   165   164    1
   141   162   160    1
   142   183   185   ar
   143   144   146   am
   144   160   159    2
   145    56    54   ar
   146    82    81    1
   147    82    85    1
   148   164   163    1
   149   184   185   ar
   150    51    50    2
   151   151    86    1
   152   151   150    1
   153   185   186    1
   154    81    78   am
   155    86    85    1
   156    53    54    1
   157    53    52    1
   158    80    77    1
   159    54    55   ar
   160   146   147    1
   161   159   158    1
   162    50    49    1
   163   158   157    1
   164    78    79    2
   165    78    77    1
   166   147   150    1
   167   147   148    1
   168    49    52    1
   169    49    48    1
   170    77    76    1
   171    75    73   ar
   172   157   156    1
   173    74    73   ar
   174    76    70   am
   175   148   149    2
   176    73    72    1
   177   156   153    1
   178    70    71    2
   179    70    69    1
   180    72    69    1
   181   152   153    1
   182   153   154    1
   183    69    68    1
   184   155   154    2
