@<TRIPOS>MOLECULE
tmp/2d1nB00.pdb
 211 212 0 0 0
SMALL
GASTEIGER

@<TRIPOS>ATOM
      1  N        -14.5270   52.8300  -12.0150 N.3    72  PHE72      -0.1227
      2  CA       -14.4760   54.2760  -12.2040 C.3    72  PHE72       0.1736
      3  C        -13.7910   54.6770  -13.4930 C.2    72  PHE72       0.2595
      4  O        -13.3830   55.8270  -13.6430 O.2    72  PHE72      -0.2718
      5  CB       -13.7430   54.9460  -11.0430 C.3    72  PHE72       0.0547
      6  CG       -12.3110   54.5280  -10.9150 C.ar   72  PHE72      -0.0202
      7  CD1      -11.9530   53.5130  -10.0420 C.ar   72  PHE72      -0.0042
      8  CD2      -11.3220   55.1250  -11.7000 C.ar   72  PHE72      -0.0042
      9  CE1      -10.6350   53.0920   -9.9500 C.ar   72  PHE72      -0.0003
     10  CE2       -9.9960   54.7110  -11.6180 C.ar   72  PHE72      -0.0003
     11  CZ        -9.6540   53.6940  -10.7420 C.ar   72  PHE72      -0.0000
     12  N        -13.6520   53.7430  -14.4260 N.am   73  TYR73      -0.1976
     13  CA       -12.9810   54.0680  -15.6780 C.3    73  TYR73       0.1639
     14  C        -13.7780   53.5720  -16.8820 C.2    73  TYR73       0.2290
     15  O        -13.3830   52.6130  -17.5470 O.2    73  TYR73      -0.2864
     16  CB       -11.5840   53.4490  -15.6800 C.3    73  TYR73       0.0560
     17  CG       -10.5760   54.2410  -16.4620 C.ar   73  TYR73      -0.0198
     18  CD1       -9.9940   55.3910  -15.9230 C.ar   73  TYR73      -0.0009
     19  CD2      -10.2310   53.8670  -17.7640 C.ar   73  TYR73      -0.0009
     20  CE1       -9.0950   56.1490  -16.6670 C.ar   73  TYR73       0.0417
     21  CE2       -9.3350   54.6160  -18.5180 C.ar   73  TYR73       0.0417
     22  CZ        -8.7750   55.7520  -17.9680 C.ar   73  TYR73       0.1957
     23  OH        -7.9160   56.5030  -18.7310 O.3    73  TYR73      -0.2866
     24  N        -10.7160   55.7140  -29.8070 N.3    80  GLY80      -0.1210
     25  CA       -10.2470   56.2570  -28.5420 C.3    80  GLY80       0.1956
     26  C         -9.6000   55.1850  -27.6800 C.2    80  GLY80       0.2612
     27  O         -8.6300   54.5420  -28.0930 O.2    80  GLY80      -0.2717
     28  N        -10.1400   55.0010  -26.4770 N.am   81  LEU81      -0.1965
     29  CA        -9.6580   53.9920  -25.5350 C.3    81  LEU81       0.1728
     30  C         -9.9500   52.5830  -26.0560 C.2    81  LEU81       0.2616
     31  O        -11.1020   52.2610  -26.3280 O.2    81  LEU81      -0.2715
     32  CB       -10.3630   54.1650  -24.1880 C.3    81  LEU81       0.0311
     33  CG        -9.6520   54.9480  -23.0870 C.3    81  LEU81       0.0022
     34  CD1       -9.1460   56.2670  -23.6400 C.3    81  LEU81       0.0001
     35  CD2      -10.6120   55.1660  -21.9230 C.3    81  LEU81       0.0001
     36  N         -8.9270   51.7380  -26.1850 N.am   82  LEU82      -0.1963
     37  CA        -9.1490   50.3740  -26.6640 C.3    82  LEU82       0.1728
     38  C         -9.2790   49.3840  -25.5040 C.2    82  LEU82       0.2616
     39  O         -9.9630   48.3680  -25.6230 O.2    82  LEU82      -0.2715
     40  CB        -8.0050   49.9220  -27.5780 C.3    82  LEU82       0.0311
     41  CG        -7.5940   50.8690  -28.7140 C.3    82  LEU82       0.0022
     42  CD1       -6.5500   50.1950  -29.6160 C.3    82  LEU82       0.0001
     43  CD2       -8.8290   51.2660  -29.5240 C.3    82  LEU82       0.0001
     44  N         -8.6250   49.6850  -24.3850 N.am   83  ALA83      -0.1963
     45  CA        -8.6600   48.8140  -23.2130 C.3    83  ALA83       0.1728
     46  C         -7.9010   49.4280  -22.0400 C.2    83  ALA83       0.2616
     47  O         -7.2150   50.4270  -22.1940 O.2    83  ALA83      -0.2715
     48  CB        -8.0470   47.4600  -23.5660 C.3    83  ALA83       0.0334
     49  N         -8.0300   48.8400  -20.8610 N.am   84  HIS84      -0.1959
     50  CA        -7.2820   49.3330  -19.7130 C.3    84  HIS84       0.1787
     51  C         -7.1580   48.2040  -18.6960 C.2    84  HIS84       0.2620
     52  O         -8.0490   47.3660  -18.5890 O.2    84  HIS84      -0.2715
     53  CB        -7.9540   50.5790  -19.1050 C.3    84  HIS84       0.0785
     54  CG        -9.1590   50.2860  -18.2630 C.ar   84  HIS84       0.0821
     55  ND1       -9.1470   50.3860  -16.8860 N.ar   84  HIS84      -0.2267
     56  CD2      -10.4150   49.9080  -18.5980 C.ar   84  HIS84       0.1154
     57  CE1      -10.3430   50.0830  -16.4120 C.ar   84  HIS84       0.1986
     58  NE2      -11.1320   49.7890  -17.4310 N.ar   84  HIS84      -0.2212
     59  N         -6.0380   48.1620  -17.9810 N.am   85  ALA85      -0.1977
     60  CA        -5.8090   47.1280  -16.9780 C.3    85  ALA85       0.1597
     61  C         -5.2860   47.7290  -15.6710 C.2    85  ALA85       0.2287
     62  O         -4.7080   48.8190  -15.6670 O.2    85  ALA85      -0.2864
     63  CB        -4.8260   46.1000  -17.5090 C.3    85  ALA85       0.0319
     64  N         -2.5410   41.5010  -29.8540 N.3   115  LEU115     -0.1231
     65  CA        -1.5930   42.5710  -29.6230 C.3   115  LEU115      0.1693
     66  C         -1.9930   43.4890  -28.4710 C.2   115  LEU115      0.2591
     67  O         -1.1680   43.8030  -27.6140 O.2   115  LEU115     -0.2718
     68  CB        -1.3840   43.3780  -30.9070 C.3   115  LEU115      0.0284
     69  CG        -0.6820   42.6200  -32.0420 C.3   115  LEU115      0.0019
     70  CD1       -0.6090   43.4960  -33.2840 C.3   115  LEU115      0.0001
     71  CD2        0.7130   42.1950  -31.5970 C.3   115  LEU115      0.0001
     72  N         -3.2530   43.9130  -28.4420 N.am  116  VAL116     -0.1980
     73  CA        -3.7140   44.8070  -27.3890 C.3   116  VAL116      0.1595
     74  C         -3.6420   44.1010  -26.0420 C.2   116  VAL116      0.2287
     75  O         -3.1950   44.6770  -25.0450 O.2   116  VAL116     -0.2864
     76  CB        -5.1510   45.2890  -27.6750 C.3   116  VAL116      0.0276
     77  CG1       -5.6370   46.2200  -26.5630 C.3   116  VAL116      0.0022
     78  CG2       -5.1790   46.0120  -29.0150 C.3   116  VAL116      0.0022
     79  N         -0.1940   43.9430  -24.5870 N.3   119  HIS119     -0.1226
     80  CA         0.1180   45.2650  -24.0680 C.3   119  HIS119      0.1752
     81  C         -0.5440   45.4090  -22.6930 C.2   119  HIS119      0.2595
     82  O          0.1050   45.8080  -21.7230 O.2   119  HIS119     -0.2718
     83  CB        -0.4320   46.3210  -25.0270 C.3   119  HIS119      0.0759
     84  CG        -0.3730   47.7240  -24.4990 C.ar  119  HIS119      0.0818
     85  ND1        0.7300   48.5370  -24.6520 N.ar  119  HIS119     -0.2268
     86  CD2       -1.2860   48.4530  -23.8150 C.ar  119  HIS119      0.1154
     87  CE1        0.4950   49.7090  -24.0840 C.ar  119  HIS119      0.1986
     88  NE2       -0.7220   49.6820  -23.5690 N.ar  119  HIS119     -0.2212
     89  N         -1.8350   45.0740  -22.6180 N.am  120  GLU120     -0.1979
     90  CA        -2.5750   45.1720  -21.3690 C.3   120  GLU120      0.1602
     91  C         -1.9510   44.3220  -20.2790 C.2   120  GLU120      0.2287
     92  O         -1.6960   44.8030  -19.1660 O.2   120  GLU120     -0.2864
     93  CB        -4.0340   44.7350  -21.5470 C.3   120  GLU120      0.0415
     94  CG        -4.8920   45.6690  -22.3820 C.3   120  GLU120      0.1163
     95  CD        -4.7590   47.1230  -21.9520 C.2   120  GLU120      0.3649
     96  OE1       -5.2210   47.4940  -20.8450 O.co2 120  GLU120     -0.2457
     97  OE2       -4.1740   47.8910  -22.7370 O.co2 120  GLU120     -0.2457
     98  N          0.6340   45.7710  -18.2890 N.3   123  HIS123     -0.1241
     99  CA         0.2070   46.6030  -17.1740 C.3   123  HIS123      0.1621
    100  C         -0.1640   45.7350  -15.9750 C.2   123  HIS123      0.2264
    101  O          0.1110   46.0950  -14.8220 O.2   123  HIS123     -0.2867
    102  CB        -1.0100   47.4510  -17.5480 C.3   123  HIS123      0.0745
    103  CG        -0.7340   48.5070  -18.5730 C.ar  123  HIS123      0.0817
    104  ND1        0.2680   49.4420  -18.4300 N.ar  123  HIS123     -0.2268
    105  CD2       -1.3650   48.8050  -19.7320 C.ar  123  HIS123      0.1154
    106  CE1        0.2390   50.2710  -19.4570 C.ar  123  HIS123      0.1986
    107  NE2       -0.7430   49.9070  -20.2610 N.ar  123  HIS123     -0.2212
    108  N          3.6170   52.6700  -19.1760 N.3   129  HIS129     -0.1241
    109  CA         3.8990   52.9710  -20.5830 C.3   129  HIS129      0.1621
    110  C          5.3430   53.3440  -20.8410 C.2   129  HIS129      0.2264
    111  O          5.9880   53.9660  -20.0050 O.2   129  HIS129     -0.2867
    112  CB         2.9850   54.0950  -21.0930 C.3   129  HIS129      0.0745
    113  CG         1.5820   53.6450  -21.3460 C.ar  129  HIS129      0.0817
    114  ND1        0.4850   54.4440  -21.1110 N.ar  129  HIS129     -0.2268
    115  CD2        1.0940   52.4450  -21.7430 C.ar  129  HIS129      0.1154
    116  CE1       -0.6170   53.7540  -21.3380 C.ar  129  HIS129      0.1986
    117  NE2       -0.2750   52.5380  -21.7210 N.ar  129  HIS129     -0.2212
    118  N          9.1400   54.2620  -28.9220 N.3   133  PRO133     -0.2102
    119  CA         8.1900   53.9460  -29.9990 C.3   133  PRO133      0.1504
    120  C          8.3430   52.5300  -30.5680 C.2   133  PRO133      0.2576
    121  O          7.5140   52.0800  -31.3550 O.2   133  PRO133     -0.2718
    122  CB         8.4810   55.0200  -31.0440 C.3   133  PRO133      0.0282
    123  CG         8.9750   56.1700  -30.2240 C.3   133  PRO133      0.0208
    124  CD         9.8870   55.4960  -29.2300 C.3   133  PRO133      0.0893
    125  N          9.4070   51.8390  -30.1700 N.am  134  GLY134     -0.1943
    126  CA         9.6340   50.4870  -30.6500 C.3   134  GLY134      0.2014
    127  C          9.2620   49.4220  -29.6330 C.2   134  GLY134      0.2639
    128  O          9.4140   48.2290  -29.8920 O.2   134  GLY134     -0.2714
    129  N          8.7630   49.8520  -28.4780 N.am  135  ALA135     -0.1963
    130  CA         8.3780   48.9340  -27.4090 C.3   135  ALA135      0.1728
    131  C          6.8960   48.5770  -27.4380 C.2   135  ALA135      0.2616
    132  O          6.0720   49.3550  -27.9200 O.2   135  ALA135     -0.2715
    133  CB         8.7340   49.5420  -26.0620 C.3   135  ALA135      0.0334
    134  N          6.5580   47.3940  -26.9310 N.am  136  LEU136     -0.1977
    135  CA         5.1570   46.9540  -26.8930 C.3   136  LEU136      0.1596
    136  C          4.3450   47.8250  -25.9370 C.2   136  LEU136      0.2287
    137  O          3.1490   48.0120  -26.1370 O.2   136  LEU136     -0.2864
    138  CB         5.0540   45.4920  -26.4430 C.3   136  LEU136      0.0297
    139  CG         3.6660   44.9390  -26.0960 C.3   136  LEU136      0.0022
    140  CD1        2.7580   44.9230  -27.3230 C.3   136  LEU136      0.0001
    141  CD2        3.8160   43.5330  -25.5470 C.3   136  LEU136      0.0001
    142  N          4.3890   50.9520  -25.6340 N.3   138  PHE138     -0.1228
    143  CA         4.2340   52.3070  -26.1740 C.3   138  PHE138      0.1721
    144  C          2.7210   52.5450  -26.3400 C.2   138  PHE138      0.2437
    145  O          2.0310   51.7440  -26.9680 O.2   138  PHE138     -0.2733
    146  CB         4.9510   52.4390  -27.5310 C.3   138  PHE138      0.0547
    147  CG         5.1560   53.8650  -27.9580 C.ar  138  PHE138     -0.0202
    148  CD1        5.9150   54.7210  -27.1690 C.ar  138  PHE138     -0.0042
    149  CD2        4.5320   54.3770  -29.1010 C.ar  138  PHE138     -0.0042
    150  CE1        6.0480   56.0670  -27.5000 C.ar  138  PHE138     -0.0003
    151  CE2        4.6590   55.7290  -29.4440 C.ar  138  PHE138     -0.0003
    152  CZ         5.4160   56.5740  -28.6420 C.ar  138  PHE138     -0.0000
    153  N          2.1960   53.6520  -25.7840 N.am  139  PRO139     -0.2718
    154  CA         0.7790   54.0490  -25.8160 C.3   139  PRO139      0.1535
    155  C          0.0570   54.3290  -27.1410 C.2   139  PRO139      0.2598
    156  O         -0.8240   55.1950  -27.1900 O.2   139  PRO139     -0.2715
    157  CB         0.7500   55.2600  -24.8870 C.3   139  PRO139      0.0310
    158  CG         2.0850   55.8780  -25.1120 C.3   139  PRO139      0.0237
    159  CD         2.9990   54.6700  -25.0840 C.3   139  PRO139      0.0939
    160  N          0.4210   53.6260  -28.2100 N.am  140  ILE140     -0.1964
    161  CA        -0.2680   53.8090  -29.4860 C.3   140  ILE140      0.1727
    162  C         -0.3810   52.4600  -30.1920 C.2   140  ILE140      0.2616
    163  O          0.5520   51.6570  -30.1760 O.2   140  ILE140     -0.2715
    164  CB         0.4430   54.8360  -30.4280 C.3   140  ILE140      0.0290
    165  CG1        1.5480   54.1530  -31.2440 C.3   140  ILE140      0.0022
    166  CG2        1.0030   56.0040  -29.6130 C.3   140  ILE140      0.0023
    167  CD1        1.1700   53.9450  -32.7110 C.3   140  ILE140      0.0001
    168  N         -1.5330   52.2100  -30.8050 N.am  141  TYR141     -0.1960
    169  CA        -1.7770   50.9470  -31.4940 C.3   141  TYR141      0.1771
    170  C         -1.1940   50.8410  -32.9030 C.2   141  TYR141      0.2620
    171  O         -1.2340   51.7980  -33.6670 O.2   141  TYR141     -0.2715
    172  CB        -3.2810   50.6930  -31.5950 C.3   141  TYR141      0.0574
    173  CG        -3.6080   49.4000  -32.3030 C.ar  141  TYR141     -0.0198
    174  CD1       -3.5010   48.1820  -31.6370 C.ar  141  TYR141     -0.0009
    175  CD2       -3.9740   49.3860  -33.6570 C.ar  141  TYR141     -0.0009
    176  CE1       -3.7430   46.9830  -32.2880 C.ar  141  TYR141      0.0417
    177  CE2       -4.2180   48.1850  -34.3240 C.ar  141  TYR141      0.0417
    178  CZ        -4.0980   46.9850  -33.6270 C.ar  141  TYR141      0.1957
    179  OH        -4.3220   45.7790  -34.2530 O.3   141  TYR141     -0.2866
    180  N         -0.6550   49.6690  -33.2280 N.am  142  THR142     -0.1951
    181  CA        -0.1290   49.3620  -34.5590 C.3   142  THR142      0.1897
    182  C         -0.2550   47.8560  -34.7300 C.2   142  THR142      0.2313
    183  O         -0.1490   47.1090  -33.7620 O.2   142  THR142     -0.2863
    184  CB         1.3640   49.7430  -34.7650 C.3   142  THR142      0.1794
    185  OG1        2.1770   49.0970  -33.7800 O.3   142  THR142     -0.2208
    186  CG2        1.5520   51.2460  -34.6990 C.3   142  THR142      0.0378
    187  N          0.7580   44.0650  -36.7540 N.3   144  THR144     -0.1218
    188  CA         1.8850   43.3620  -37.3450 C.3   144  THR144      0.1862
    189  C          1.4780   41.9500  -37.6910 C.2   144  THR144      0.2287
    190  O          0.8920   41.2560  -36.8620 O.2   144  THR144     -0.2866
    191  CB         3.0690   43.2180  -36.3990 C.3   144  THR144      0.1770
    192  OG1        3.2180   44.4020  -35.6150 O.3   144  THR144     -0.2211
    193  CG2        4.3280   42.9820  -37.2050 C.3   144  THR144      0.0375
    194  N          5.4520   36.5350  -32.8740 N.3   149  PHE149     -0.1241
    195  CA         5.7740   37.8350  -32.3030 C.3   149  PHE149      0.1605
    196  C          6.5380   37.7100  -30.9900 C.2   149  PHE149      0.2264
    197  O          6.1040   37.0230  -30.0660 O.2   149  PHE149     -0.2867
    198  CB         4.4720   38.6290  -32.1030 C.3   149  PHE149      0.0534
    199  CG         4.6420   39.9040  -31.3360 C.ar  149  PHE149     -0.0203
    200  CD1        4.6040   39.9050  -29.9470 C.ar  149  PHE149     -0.0042
    201  CD2        4.8550   41.1060  -32.0020 C.ar  149  PHE149     -0.0042
    202  CE1        4.7760   41.0870  -29.2300 C.ar  149  PHE149     -0.0003
    203  CE2        5.0280   42.2980  -31.2930 C.ar  149  PHE149     -0.0003
    204  CZ         4.9890   42.2850  -29.9040 C.ar  149  PHE149     -0.0000
    205  N          9.7840   43.1560  -27.6910 N.3   152  PRO152     -0.2116
    206  CA        10.9010   44.0580  -27.9890 C.3   152  PRO152      0.1372
    207  C         11.8670   44.1340  -26.7990 C.2   152  PRO152      0.2244
    208  O         11.4870   43.8280  -25.6670 O.2   152  PRO152     -0.2868
    209  CB        10.2020   45.3870  -28.2610 C.3   152  PRO152      0.0268
    210  CG         8.9250   44.9510  -28.9220 C.3   152  PRO152      0.0207
    211  CD         8.4940   43.7670  -28.0640 C.3   152  PRO152      0.0892
@<TRIPOS>BOND
     1   189   188    1
     2   189   190    2
     3   188   187    1
     4   188   191    1
     5   193   191    1
     6   191   192    1
     7   184   186    1
     8   184   181    1
     9   184   185    1
    10   182   181    1
    11   182   183    2
    12   181   180    1
    13   177   175   ar
    14   177   178   ar
    15   179   178    1
    16   171   170    2
    17   175   173   ar
    18   178   176   ar
    19    70    69    1
    20   180   170   am
    21   170   169    1
    22   194   195    1
    23   167   165    1
    24   173   174   ar
    25   173   172    1
    26   195   198    1
    27   195   196    1
    28   176   174   ar
    29   198   199    1
    30    69    71    1
    31    69    68    1
    32   201   199   ar
    33   201   203   ar
    34   172   169    1
    35   169   168    1
    36   121   120    2
    37   199   200   ar
    38   203   204   ar
    39   165   164    1
    40   122   123    1
    41   122   119    1
    42   196   197    2
    43    68    65    1
    44   168   162   am
    45   126   125    1
    46   126   127    1
    47   120   125   am
    48   120   119    1
    49   164   166    1
    50   164   161    1
    51   123   124    1
    52   162   163    2
    53   162   161    1
    54   119   118    1
    55   200   202   ar
    56   204   202   ar
    57   128   127    2
    58    64    65    1
    59    24    25    1
    60   127   129   am
    61    65    66    1
    62    42    41    1
    63    43    41    1
    64   161   160    1
    65   151   149   ar
    66   151   152   ar
    67   124   118    1
    68   149   147   ar
    69    78    76    1
    70   210   209    1
    71   210   211    1
    72    41    40    1
    73   152   150   ar
    74    25    26    1
    75   129   130    1
    76    66    72   am
    77    66    67    2
    78    72    73    1
    79   209   206    1
    80   160   155   am
    81    27    26    2
    82   211   205    1
    83   206   205    1
    84   206   207    1
    85   147   146    1
    86   147   148   ar
    87   132   131    2
    88    26    28   am
    89    76    73    1
    90    76    77    1
    91    40    37    1
    92   146   143    1
    93   150   148   ar
    94   131   130    1
    95   131   134   am
    96   130   133    1
    97    73    74    1
    98   140   139    1
    99   156   155    2
   100   155   154    1
   101   145   144    2
   102   134   135    1
   103   135   138    1
   104   135   136    1
   105   207   208    2
   106    37    36    1
   107    37    38    1
   108    28    29    1
   109   138   139    1
   110   144   143    1
   111   144   153   am
   112    31    30    2
   113    36    30   am
   114   143   142    1
   115   137   136    2
   116   139   141    1
   117    30    29    1
   118    74    75    2
   119   154   153    1
   120   154   157    1
   121   153   159    1
   122    39    38    2
   123    29    32    1
   124    38    44   am
   125   158   159    1
   126   158   157    1
   127    83    84    1
   128    83    80    1
   129    85    84   ar
   130    85    87   ar
   131    79    80    1
   132    84    86   ar
   133    44    45    1
   134    32    33    1
   135    87    88   ar
   136    80    81    1
   137    86    88   ar
   138    34    33    1
   139    48    45    1
   140    45    46    1
   141    33    35    1
   142    97    95   ar
   143    81    89   am
   144    81    82    2
   145    89    90    1
   146    94    95    1
   147    94    93    1
   148    47    46    2
   149    46    49   am
   150    95    96   ar
   151   115   117   ar
   152   115   113   ar
   153   117   116   ar
   154    93    90    1
   155    90    91    1
   156   113   114   ar
   157   113   112    1
   158   116   114   ar
   159   112   109    1
   160    49    50    1
   161   110   109    1
   162   110   111    2
   163   109   108    1
   164    91    92    2
   165   107   105   ar
   166   107   106   ar
   167   105   103   ar
   168    50    53    1
   169    50    51    1
   170   106   104   ar
   171    53    54    1
   172    23    22    1
   173    51    52    2
   174    51    59   am
   175    56    54   ar
   176    56    58   ar
   177   103   104   ar
   178   103   102    1
   179    21    22   ar
   180    21    19   ar
   181    98    99    1
   182    54    55   ar
   183    59    60    1
   184    22    20   ar
   185    19    17   ar
   186   102    99    1
   187    15    14    2
   188    63    60    1
   189    58    57   ar
   190    99   100    1
   191    60    61    1
   192    55    57   ar
   193    14    13    1
   194    20    18   ar
   195    17    18   ar
   196    17    16    1
   197   100   101    2
   198    16    13    1
   199    13    12    1
   200    61    62    2
   201    12     3   am
   202     4     3    2
   203     3     2    1
   204     2     1    1
   205     2     5    1
   206     8    10   ar
   207     8     6   ar
   208    10    11   ar
   209     5     6    1
   210     6     7   ar
   211    11     9   ar
   212     7     9   ar
