@<TRIPOS>MOLECULE
tmp/2d1oA00.pdb
 216 216 0 0 0
SMALL
GASTEIGER

@<TRIPOS>ATOM
      1  N         45.6210   10.2860   14.4620 N.3    73  TYR73      -0.1241
      2  CA        44.3910   10.3480   15.2390 C.3    73  TYR73       0.1605
      3  C         44.3260    9.3050   16.3490 C.2    73  TYR73       0.2264
      4  O         43.7410    8.2330   16.1840 O.2    73  TYR73      -0.2867
      5  CB        43.2100   10.1880   14.2820 C.3    73  TYR73       0.0534
      6  CG        43.3080   11.1230   13.0960 C.ar   73  TYR73      -0.0201
      7  CD1       43.0290   12.4830   13.2300 C.ar   73  TYR73      -0.0009
      8  CD2       43.7240   10.6560   11.8500 C.ar   73  TYR73      -0.0009
      9  CE1       43.1610   13.3570   12.1520 C.ar   73  TYR73       0.0417
     10  CE2       43.8620   11.5220   10.7650 C.ar   73  TYR73       0.0417
     11  CZ        43.5780   12.8700   10.9240 C.ar   73  TYR73       0.1957
     12  OH        43.7060   13.7240    9.8520 O.3    73  TYR73      -0.2866
     13  N         32.9990    7.9470   23.7840 N.3    80  ASN80      -0.1225
     14  CA        33.2430    8.9240   22.7240 C.3    80  ASN80       0.1785
     15  C         33.6010    8.2830   21.3850 C.2    80  ASN80       0.2597
     16  O         32.7710    7.6030   20.7850 O.2    80  ASN80      -0.2718
     17  CB        34.3410    9.9020   23.1480 C.3    80  ASN80       0.1169
     18  CG        33.9560   10.7150   24.3690 C.2    80  ASN80       0.2627
     19  OD1       32.8980   11.3480   24.4000 O.2    80  ASN80      -0.2716
     20  ND2       34.8180   10.7110   25.3800 N.am   80  ASN80      -0.0877
     21  N         34.8200    8.5060   20.9020 N.am   81  VAL81      -0.1966
     22  CA        35.2210    7.9160   19.6290 C.3    81  VAL81       0.1727
     23  C         35.2760    6.4010   19.7810 C.2    81  VAL81       0.2616
     24  O         35.9520    5.8800   20.6700 O.2    81  VAL81      -0.2715
     25  CB        36.6010    8.4260   19.1650 C.3    81  VAL81       0.0290
     26  CG1       36.9740    7.7890   17.8250 C.3    81  VAL81       0.0023
     27  CG2       36.5780    9.9400   19.0340 C.3    81  VAL81       0.0023
     28  N         34.5570    5.7000   18.9110 N.am   82  LEU82      -0.1963
     29  CA        34.5190    4.2460   18.9550 C.3    82  LEU82       0.1728
     30  C         35.4420    3.6300   17.9030 C.2    82  LEU82       0.2616
     31  O         36.0130    2.5610   18.1170 O.2    82  LEU82      -0.2715
     32  CB        33.0840    3.7500   18.7300 C.3    82  LEU82       0.0311
     33  CG        31.9960    4.3090   19.6590 C.3    82  LEU82       0.0022
     34  CD1       30.6380    3.7470   19.2700 C.3    82  LEU82       0.0001
     35  CD2       32.3380    3.9610   21.1010 C.3    82  LEU82       0.0001
     36  N         35.5970    4.3110   16.7710 N.am   83  ALA83      -0.1963
     37  CA        36.4390    3.7990   15.6960 C.3    83  ALA83       0.1728
     38  C         36.5400    4.8190   14.5750 C.2    83  ALA83       0.2616
     39  O         35.7990    5.8020   14.5510 O.2    83  ALA83      -0.2715
     40  CB        35.8460    2.4980   15.1450 C.3    83  ALA83       0.0334
     41  N         37.4690    4.5950   13.6530 N.am   84  HIS84      -0.1959
     42  CA        37.6110    5.4830   12.5120 C.3    84  HIS84       0.1787
     43  C         38.1720    4.7310   11.3120 C.2    84  HIS84       0.2620
     44  O         38.8660    3.7170   11.4600 O.2    84  HIS84      -0.2715
     45  CB        38.4810    6.7050   12.8620 C.3    84  HIS84       0.0785
     46  CG        39.8900    6.3750   13.2530 C.ar   84  HIS84       0.0821
     47  ND1       40.4600    6.8340   14.4210 N.ar   84  HIS84      -0.2267
     48  CD2       40.8600    5.6800   12.6120 C.ar   84  HIS84       0.1154
     49  CE1       41.7180    6.4380   14.4820 C.ar   84  HIS84       0.1986
     50  NE2       41.9870    5.7350   13.3960 N.ar   84  HIS84      -0.2212
     51  N         37.8530    5.2180   10.1190 N.am   85  ALA85      -0.1977
     52  CA        38.3190    4.5820    8.8930 C.3    85  ALA85       0.1597
     53  C         38.7630    5.6240    7.8820 C.2    85  ALA85       0.2287
     54  O         38.4660    6.8080    8.0250 O.2    85  ALA85      -0.2864
     55  CB        37.2220    3.7180    8.3030 C.3    85  ALA85       0.0319
     56  N         27.4410   -3.2020   14.1150 N.3   115  LEU115     -0.1231
     57  CA        26.8880   -1.8960   13.7840 C.3   115  LEU115      0.1693
     58  C         27.9770   -0.8700   13.5000 C.2   115  LEU115      0.2591
     59  O         27.9140   -0.1420   12.5100 O.2   115  LEU115     -0.2718
     60  CB        25.9950   -1.4020   14.9250 C.3   115  LEU115      0.0284
     61  CG        24.7080   -2.1950   15.2020 C.3   115  LEU115      0.0019
     62  CD1       23.9990   -1.6020   16.4140 C.3   115  LEU115      0.0001
     63  CD2       23.7980   -2.1600   13.9850 C.3   115  LEU115      0.0001
     64  N         28.9770   -0.8120   14.3710 N.am  116  VAL116     -0.1980
     65  CA        30.0630    0.1380   14.1880 C.3   116  VAL116      0.1595
     66  C         30.8750   -0.2180   12.9410 C.2   116  VAL116      0.2287
     67  O         31.2780    0.6560   12.1790 O.2   116  VAL116     -0.2864
     68  CB        30.9910    0.1650   15.4210 C.3   116  VAL116      0.0276
     69  CG1       32.1070    1.1890   15.2130 C.3   116  VAL116      0.0022
     70  CG2       30.1890    0.5360   16.6600 C.3   116  VAL116      0.0022
     71  N         29.2520    0.9000    9.6970 N.3   119  HIS119     -0.1226
     72  CA        29.4500    2.3430    9.5270 C.3   119  HIS119      0.1752
     73  C         30.8650    2.6350    8.9990 C.2   119  HIS119      0.2595
     74  O         31.0530    3.4510    8.0890 O.2   119  HIS119     -0.2718
     75  CB        29.2480    3.0360   10.8850 C.3   119  HIS119      0.0759
     76  CG        29.4880    4.5160   10.8640 C.ar  119  HIS119      0.0818
     77  ND1       28.4970    5.4320   10.5820 N.ar  119  HIS119     -0.2268
     78  CD2       30.6070    5.2380   11.1090 C.ar  119  HIS119      0.1154
     79  CE1       28.9940    6.6540   10.6570 C.ar  119  HIS119      0.1986
     80  NE2       30.2730    6.5640   10.9750 N.ar  119  HIS119     -0.2212
     81  N         31.8540    1.9570    9.5770 N.am  120  GLU120     -0.1979
     82  CA        33.2460    2.1480    9.1900 C.3   120  GLU120      0.1602
     83  C         33.5230    1.6980    7.7590 C.2   120  GLU120      0.2287
     84  O         34.2950    2.3440    7.0480 O.2   120  GLU120     -0.2864
     85  CB        34.1820    1.4010   10.1500 C.3   120  GLU120      0.0415
     86  CG        34.1160    1.8930   11.5860 C.3   120  GLU120      0.1163
     87  CD        34.3400    3.3970   11.6950 C.2   120  GLU120      0.3649
     88  OE1       35.3850    3.8870   11.2210 O.co2 120  GLU120     -0.2457
     89  OE2       33.4690    4.0880   12.2650 O.co2 120  GLU120     -0.2457
     90  N         32.8500    4.2540    5.3070 N.3   123  HIS123     -0.1241
     91  CA        33.9400    5.2080    5.0730 C.3   123  HIS123      0.1621
     92  C         34.9970    4.5680    4.1700 C.2   123  HIS123      0.2264
     93  O         35.5550    5.2220    3.2880 O.2   123  HIS123     -0.2867
     94  CB        34.6200    5.6190    6.3890 C.3   123  HIS123      0.0745
     95  CG        33.7640    6.4420    7.3020 C.ar  123  HIS123      0.0817
     96  ND1       33.0580    7.5470    6.8740 N.ar  123  HIS123     -0.2268
     97  CD2       33.5490    6.3540    8.6360 C.ar  123  HIS123      0.1154
     98  CE1       32.4470    8.1050    7.9040 C.ar  123  HIS123      0.1986
     99  NE2       32.7290    7.4010    8.9870 N.ar  123  HIS123     -0.2212
    100  N         30.0670   11.3240    6.5710 N.3   129  HIS129     -0.1241
    101  CA        28.8760   11.4450    7.4010 C.3   129  HIS129      0.1621
    102  C         27.7090   12.1620    6.7450 C.2   129  HIS129      0.2264
    103  O         27.8940   13.1010    5.9620 O.2   129  HIS129     -0.2867
    104  CB        29.2430   12.1320    8.7100 C.3   129  HIS129      0.0745
    105  CG        30.1720   11.3260    9.5610 C.ar  129  HIS129      0.0817
    106  ND1       31.0960   11.9010   10.4040 N.ar  129  HIS129     -0.2268
    107  CD2       30.3100    9.9870    9.7070 C.ar  129  HIS129      0.1154
    108  CE1       31.7660   10.9520   11.0330 C.ar  129  HIS129      0.1986
    109  NE2       31.3070    9.7810   10.6290 N.ar  129  HIS129     -0.2212
    110  N         19.2450   11.9500    9.8510 N.3   133  THR133     -0.1203
    111  CA        19.2160   11.2390   11.1300 C.3   133  THR133      0.1994
    112  C         18.8960    9.7380   11.1030 C.2   133  THR133      0.2618
    113  O         19.0670    9.0490   12.1140 O.2   133  THR133     -0.2717
    114  CB        18.2320   11.9180   12.1000 C.3   133  THR133      0.1784
    115  OG1       16.9120   11.8920   11.5470 O.3   133  THR133     -0.2211
    116  CG2       18.6440   13.3620   12.3490 C.3   133  THR133      0.0376
    117  N         18.4440    9.2310    9.9590 N.am  134  GLU134     -0.1965
    118  CA        18.1070    7.8150    9.8340 C.3   134  GLU134      0.1733
    119  C         19.2070    7.0160    9.1370 C.2   134  GLU134      0.2616
    120  O         19.1910    5.7860    9.1390 O.2   134  GLU134     -0.2715
    121  CB        16.7800    7.6750    9.0750 C.3   134  GLU134      0.0429
    122  CG        15.5690    8.0790    9.9140 C.3   134  GLU134      0.1163
    123  CD        15.2810    7.0500   10.9900 C.2   134  GLU134      0.3649
    124  OE1       14.9320    7.4380   12.1180 O.co2 134  GLU134     -0.2457
    125  OE2       15.4090    5.8470   10.6890 O.co2 134  GLU134     -0.2457
    126  N         20.1760    7.7190    8.5590 N.am  135  ALA135     -0.1963
    127  CA        21.2670    7.0680    7.8330 C.3   135  ALA135      0.1728
    128  C         22.3020    6.3550    8.7010 C.2   135  ALA135      0.2616
    129  O         22.6440    6.8090    9.7970 O.2   135  ALA135     -0.2715
    130  CB        21.9700    8.0910    6.9400 C.3   135  ALA135      0.0334
    131  N         22.7900    5.2230    8.2040 N.am  136  LEU136     -0.1977
    132  CA        23.8170    4.4740    8.9100 C.3   136  LEU136      0.1596
    133  C         25.0590    5.3650    8.9890 C.2   136  LEU136      0.2287
    134  O         25.8870    5.2130    9.8860 O.2   136  LEU136     -0.2864
    135  CB        24.1460    3.1740    8.1560 C.3   136  LEU136      0.0297
    136  CG        25.3570    2.3700    8.6360 C.3   136  LEU136      0.0022
    137  CD1       25.2070    2.0260   10.1070 C.3   136  LEU136      0.0001
    138  CD2       25.4880    1.1060    7.7940 C.3   136  LEU136      0.0001
    139  N         25.1220    8.4850    9.7280 N.3   138  TYR138     -0.1228
    140  CA        24.9540    9.5700   10.6930 C.3   138  TYR138      0.1721
    141  C         25.7800    9.0960   11.9050 C.2   138  TYR138      0.2437
    142  O         25.5040    8.0360   12.4660 O.2   138  TYR138     -0.2733
    143  CB        23.4840    9.7120   11.0950 C.3   138  TYR138      0.0547
    144  CG        23.2370   10.8710   12.0310 C.ar  138  TYR138     -0.0200
    145  CD1       23.1420   12.1740   11.5420 C.ar  138  TYR138     -0.0009
    146  CD2       23.1360   10.6710   13.4110 C.ar  138  TYR138     -0.0009
    147  CE1       22.9490   13.2530   12.4040 C.ar  138  TYR138      0.0417
    148  CE2       22.9490   11.7380   14.2800 C.ar  138  TYR138      0.0417
    149  CZ        22.8540   13.0230   13.7710 C.ar  138  TYR138      0.1957
    150  OH        22.6610   14.0800   14.6260 O.3   138  TYR138     -0.2866
    151  N         26.7840    9.8810   12.3340 N.am  139  PRO139     -0.2718
    152  CA        27.6670    9.5570   13.4650 C.3   139  PRO139      0.1535
    153  C         27.0820    9.5590   14.8840 C.2   139  PRO139      0.2598
    154  O         27.3610   10.4590   15.6700 O.2   139  PRO139     -0.2715
    155  CB        28.7930   10.5780   13.3070 C.3   139  PRO139      0.0310
    156  CG        28.0580   11.7810   12.8030 C.3   139  PRO139      0.0237
    157  CD        27.1570   11.1800   11.7420 C.3   139  PRO139      0.0939
    158  N         26.3010    8.5390   15.2210 N.am  140  LEU140     -0.1964
    159  CA        25.7180    8.4690   16.5550 C.3   140  LEU140      0.1728
    160  C         25.3390    7.0360   16.9160 C.2   140  LEU140      0.2616
    161  O         24.4620    6.4360   16.2910 O.2   140  LEU140     -0.2715
    162  CB        24.4880    9.3850   16.6360 C.3   140  LEU140      0.0311
    163  CG        23.9230    9.7550   18.0110 C.3   140  LEU140      0.0022
    164  CD1       23.2600    8.5550   18.6460 C.3   140  LEU140      0.0001
    165  CD2       25.0380   10.2930   18.8960 C.3   140  LEU140      0.0001
    166  N         26.0070    6.4920   17.9280 N.am  141  TYR141     -0.1960
    167  CA        25.7260    5.1340   18.3720 C.3   141  TYR141      0.1771
    168  C         24.7940    5.1690   19.5740 C.2   141  TYR141      0.2619
    169  O         24.9590    5.9980   20.4700 O.2   141  TYR141     -0.2715
    170  CB        27.0210    4.4090   18.7600 C.3   141  TYR141      0.0574
    171  CG        26.7920    2.9830   19.2200 C.ar  141  TYR141     -0.0198
    172  CD1       26.5900    1.9570   18.2980 C.ar  141  TYR141     -0.0009
    173  CD2       26.7170    2.6700   20.5790 C.ar  141  TYR141     -0.0009
    174  CE1       26.3130    0.6500   18.7160 C.ar  141  TYR141      0.0417
    175  CE2       26.4390    1.3650   21.0090 C.ar  141  TYR141      0.0417
    176  CZ        26.2380    0.3640   20.0730 C.ar  141  TYR141      0.1957
    177  OH        25.9600   -0.9180   20.4850 O.3   141  TYR141     -0.2866
    178  N         23.8150    4.2730   19.5900 N.am  142  HIS142     -0.1973
    179  CA        22.8720    4.1950   20.6980 C.3   142  HIS142      0.1656
    180  C         22.7070    2.7320   21.1080 C.2   142  HIS142      0.2291
    181  O         22.4730    1.8740   20.2570 O.2   142  HIS142     -0.2864
    182  CB        21.5170    4.7700   20.2800 C.3   142  HIS142      0.0771
    183  CG        20.5860    5.0010   21.4270 C.ar  142  HIS142      0.0820
    184  ND1       19.2490    5.2910   21.2570 N.ar  142  HIS142     -0.2267
    185  CD2       20.8060    5.0030   22.7620 C.ar  142  HIS142      0.1154
    186  CE1       18.6860    5.4590   22.4400 C.ar  142  HIS142      0.1986
    187  NE2       19.6100    5.2900   23.3700 N.ar  142  HIS142     -0.2212
    188  N         19.5650    0.4340   19.9810 N.3   145  THR145     -0.1218
    189  CA        19.3030    0.1420   18.5760 C.3   145  THR145      0.1862
    190  C         18.8390   -1.3120   18.4340 C.2   145  THR145      0.2287
    191  O         19.4420   -2.2230   19.0070 O.2   145  THR145     -0.2866
    192  CB        20.5690    0.3570   17.7130 C.3   145  THR145      0.1770
    193  OG1       21.0660    1.6890   17.9020 O.3   145  THR145     -0.2211
    194  CG2       20.2500    0.1630   16.2420 C.3   145  THR145      0.0375
    195  N         17.5850   -3.8470   11.5640 N.3   150  PHE150     -0.1227
    196  CA        18.6450   -3.1120   10.8810 C.3   150  PHE150      0.1736
    197  C         18.5040   -3.1210    9.3630 C.2   150  PHE150      0.2595
    198  O         18.1310   -4.1320    8.7730 O.2   150  PHE150     -0.2718
    199  CB        20.0140   -3.6900   11.2370 C.3   150  PHE150      0.0547
    200  CG        21.1460   -3.0740   10.4640 C.ar  150  PHE150     -0.0202
    201  CD1       21.5900   -1.7940   10.7630 C.ar  150  PHE150     -0.0042
    202  CD2       21.7470   -3.7630    9.4150 C.ar  150  PHE150     -0.0042
    203  CE1       22.6160   -1.2030   10.0300 C.ar  150  PHE150     -0.0003
    204  CE2       22.7750   -3.1810    8.6750 C.ar  150  PHE150     -0.0003
    205  CZ        23.2080   -1.8980    8.9850 C.ar  150  PHE150     -0.0000
    206  N         18.8230   -1.9880    8.7400 N.am  151  ARG151     -0.1980
    207  CA        18.7670   -1.8480    7.2860 C.3   151  ARG151      0.1597
    208  C         19.3170   -0.4870    6.8770 C.2   151  ARG151      0.2287
    209  O         19.2760    0.4600    7.6580 O.2   151  ARG151     -0.2864
    210  CB        17.3290   -1.9890    6.7760 C.3   151  ARG151      0.0334
    211  CG        16.3520   -0.9670    7.3370 C.3   151  ARG151      0.0492
    212  CD        14.9820   -1.1020    6.6830 C.3   151  ARG151      0.2205
    213  NE        14.4370   -2.4520    6.8240 N.pl3 151  ARG151     -0.0865
    214  CZ        13.2430   -2.8300    6.3740 C.cat 151  ARG151      0.5346
    215  NH1       12.4580   -1.9610    5.7510 N.pl3 151  ARG151      0.1354
    216  NH2       12.8330   -4.0800    6.5480 N.pl3 151  ARG151      0.1354
@<TRIPOS>BOND
     1    93    92    2
     2    92    91    1
     3    91    90    1
     4    91    94    1
     5   215   214    1
     6   103   102    2
     7   214   216    1
     8   214   213    2
     9    94    95    1
    10   100   101    1
    11   212   213    1
    12   212   211    1
    13   102   101    1
    14   210   207    1
    15   210   211    1
    16    96    95   ar
    17    96    98   ar
    18   208   207    1
    19   208   209    2
    20   130   127    1
    21    84    83    2
    22   207   206    1
    23    95    97   ar
    24   101   104    1
    25    83    82    1
    26   138   136    1
    27   127   126    1
    28   127   128    1
    29    53    54    2
    30    53    52    1
    31    98    99   ar
    32    74    73    2
    33   135   136    1
    34   135   132    1
    35   131   128   am
    36   131   132    1
    37    55    52    1
    38   126   119   am
    39    97    99   ar
    40   136   137    1
    41   204   205   ar
    42   204   202   ar
    43   128   129    2
    44   104   105    1
    45   206   197   am
    46   198   197    2
    47    52    51    1
    48   132   133    1
    49   205   203   ar
    50   133   134    2
    51    73    72    1
    52    73    81   am
    53   121   118    1
    54   121   122    1
    55   119   120    2
    56   119   118    1
    57    82    81    1
    58    82    85    1
    59   197   196    1
    60   202   200   ar
    61    72    71    1
    62    72    75    1
    63   105   107   ar
    64   105   106   ar
    65   107   109   ar
    66   139   140    1
    67   118   117    1
    68   110   111    1
    69    12    11    1
    70   122   123    1
    71   117   112   am
    72   203   201   ar
    73    51    43   am
    74    85    86    1
    75   106   108   ar
    76   200   201   ar
    77   200   199    1
    78    77    79   ar
    79    77    76   ar
    80   109   108   ar
    81    79    80   ar
    82   125   123   ar
    83   140   143    1
    84   140   141    1
    85    10    11   ar
    86    10     8   ar
    87    76    75    1
    88    76    78   ar
    89   196   199    1
    90   196   195    1
    91    11     9   ar
    92    80    78   ar
    93   123   124   ar
    94   143   144    1
    95   112   111    1
    96   112   113    2
    97   111   114    1
    98    88    87   ar
    99    43    44    2
   100    43    42    1
   101   145   144   ar
   102   145   147   ar
   103   115   114    1
   104    86    87    1
   105    87    89   ar
   106   157   151    1
   107   157   156    1
   108     8     6   ar
   109   141   151   am
   110   141   142    2
   111   144   146   ar
   112   114   116    1
   113     9     7   ar
   114    67    66    2
   115   151   152    1
   116   147   149   ar
   117    59    58    2
   118    42    45    1
   119    42    41    1
   120    48    46   ar
   121    48    50   ar
   122   156   155    1
   123    45    46    1
   124    66    65    1
   125     6     7   ar
   126     6     5    1
   127    46    47   ar
   128   155   152    1
   129    50    49   ar
   130   146   148   ar
   131   152   153    1
   132    58    57    1
   133    58    64   am
   134    41    38   am
   135   149   148   ar
   136   149   150    1
   137    57    56    1
   138    57    60    1
   139    63    61    1
   140    65    64    1
   141    65    68    1
   142     5     2    1
   143    47    49   ar
   144     1     2    1
   145    39    38    2
   146    38    37    1
   147   153   158   am
   148   153   154    2
   149    60    61    1
   150    40    37    1
   151    61    62    1
   152    69    68    1
   153   158   159    1
   154     2     3    1
   155    68    70    1
   156    37    36    1
   157     4     3    2
   158   194   192    1
   159   161   160    2
   160   159   162    1
   161   159   160    1
   162   162   163    1
   163    36    30   am
   164   160   166   am
   165   192   193    1
   166   192   189    1
   167    26    25    1
   168    30    31    2
   169    30    29    1
   170   166   167    1
   171   163   164    1
   172   163   165    1
   173   172   174   ar
   174   172   171   ar
   175   167   170    1
   176   167   168    1
   177   190   189    1
   178   190   191    2
   179   189   188    1
   180   174   176   ar
   181    32    29    1
   182    32    33    1
   183   170   171    1
   184    28    29    1
   185    28    23   am
   186    27    25    1
   187    25    22    1
   188   171   173   ar
   189    34    33    1
   190   168   178   am
   191   168   169    2
   192   178   179    1
   193    22    23    1
   194    22    21    1
   195    33    35    1
   196    23    24    2
   197   176   177    1
   198   176   175   ar
   199   181   180    2
   200   182   179    1
   201   182   183    1
   202   173   175   ar
   203   179   180    1
   204    16    15    2
   205    21    15   am
   206   184   183   ar
   207   184   186   ar
   208    15    14    1
   209   183   185   ar
   210   186   187   ar
   211    14    17    1
   212    14    13    1
   213   185   187   ar
   214    17    18    1
   215    18    19    2
   216    18    20   am
