@<TRIPOS>MOLECULE
tmp/2d1qA00.pdb
 174 167 0 0 0
SMALL
GASTEIGER

@<TRIPOS>ATOM
      1  N         10.2500   29.0570   14.7130 N.3   191  SER191     -0.1202
      2  CA        11.7310   29.0750   14.6870 C.3   191  SER191      0.2020
      3  C         12.3560   29.1580   16.0990 C.2   191  SER191      0.2619
      4  O         11.6360   29.3190   17.1030 O.2   191  SER191     -0.2717
      5  CB        12.2500   30.2170   13.7940 C.3   191  SER191      0.2103
      6  OG        11.8180   31.4810   14.2690 O.3   191  SER191     -0.2182
      7  N         13.6950   29.0580   16.1580 N.am  192  SER192     -0.1951
      8  CA        14.4630   29.1320   17.4170 C.3   192  SER192      0.1924
      9  C         14.9260   30.5450   17.8030 C.2   192  SER192      0.2314
     10  O         14.6200   31.5350   17.1130 O.2   192  SER192     -0.2863
     11  CB        15.6790   28.2210   17.3510 C.3   192  SER192      0.2116
     12  OG        16.5870   28.7060   16.3680 O.3   192  SER192     -0.2180
     13  N         11.2590   21.4510   16.5830 N.3   234  HIS234     -0.1241
     14  CA        11.8530   22.3340   15.6040 C.3   234  HIS234      0.1621
     15  C         12.0380   21.5920   14.2570 C.2   234  HIS234      0.2264
     16  O         12.2380   20.3620   14.2470 O.2   234  HIS234     -0.2867
     17  CB        13.1940   22.8170   16.1470 C.3   234  HIS234      0.0745
     18  CG        13.8240   23.8890   15.3190 C.ar  234  HIS234      0.0817
     19  ND1       14.6560   23.6110   14.2510 N.ar  234  HIS234     -0.2268
     20  CD2       13.7280   25.2410   15.3870 C.ar  234  HIS234      0.1154
     21  CE1       15.0540   24.7450   13.7000 C.ar  234  HIS234      0.1986
     22  NE2       14.5080   25.7490   14.3730 N.ar  234  HIS234     -0.2212
     23  N         23.9000   20.9020   11.7420 N.3   304  GLY304     -0.1210
     24  CA        23.0740   21.9610   11.1900 C.3   304  GLY304      0.1956
     25  C         22.6200   22.9070   12.2800 C.2   304  GLY304      0.2612
     26  O         22.9590   22.7190   13.4570 O.2   304  GLY304     -0.2717
     27  N         21.8640   23.9260   11.8830 N.am  305  GLY305     -0.1942
     28  CA        21.1550   24.7690   12.8240 C.3   305  GLY305      0.2014
     29  C         21.8050   26.1030   13.0970 C.2   305  GLY305      0.2639
     30  O         21.1100   27.0780   13.3790 O.2   305  GLY305     -0.2714
     31  N         23.1350   26.1320   13.0150 N.am  306  ALA306     -0.1963
     32  CA        23.9490   27.2410   13.4820 C.3   306  ALA306      0.1713
     33  C         25.3250   27.1180   12.8290 C.2   306  ALA306      0.2458
     34  O         25.6980   26.0250   12.4020 O.2   306  ALA306     -0.2730
     35  CB        24.0780   27.1950   15.0180 C.3   306  ALA306      0.0333
     36  N         26.0890   28.2080   12.7520 N.am  307  PRO307     -0.2716
     37  CA        27.4020   28.1620   12.0910 C.3   307  PRO307      0.1536
     38  C         28.3120   27.1260   12.7570 C.2   307  PRO307      0.2598
     39  O         28.2980   26.9650   13.9810 O.2   307  PRO307     -0.2715
     40  CB        27.9520   29.5840   12.2930 C.3   307  PRO307      0.0310
     41  CG        26.7400   30.4170   12.5480 C.3   307  PRO307      0.0237
     42  CD        25.7830   29.5460   13.2890 C.3   307  PRO307      0.0939
     43  N         29.0700   26.3930   11.9580 N.am  308  LEU308     -0.1978
     44  CA        29.9850   25.4320   12.5530 C.3   308  LEU308      0.1596
     45  C         31.4190   25.8240   12.2250 C.2   308  LEU308      0.2287
     46  O         31.7800   25.9930   11.0570 O.2   308  LEU308     -0.2864
     47  CB        29.6670   23.9960   12.1070 C.3   308  LEU308      0.0297
     48  CG        30.7370   22.9140   12.3330 C.3   308  LEU308      0.0022
     49  CD1       31.0250   22.7000   13.8290 C.3   308  LEU308      0.0001
     50  CD2       30.3800   21.5780   11.6410 C.3   308  LEU308      0.0001
     51  N         26.9490   18.6840    6.4540 N.3   327  GLN327     -0.1231
     52  CA        26.1680   19.8180    6.9180 C.3   327  GLN327      0.1698
     53  C         24.8700   19.9170    6.1440 C.2   327  GLN327      0.2593
     54  O         24.8000   19.5090    4.9840 O.2   327  GLN327     -0.2718
     55  CB        26.9450   21.1180    6.7470 C.3   327  GLN327      0.0381
     56  CG        28.0150   21.3310    7.7860 C.3   327  GLN327      0.0905
     57  CD        28.3260   22.8030    8.0120 C.2   327  GLN327      0.2608
     58  OE1       27.4830   23.5560    8.5190 O.2   327  GLN327     -0.2717
     59  NE2       29.5380   23.2140    7.6470 N.am  327  GLN327     -0.0878
     60  N         23.8380   20.4240    6.8110 N.am  328  GLY328     -0.1942
     61  CA        22.6150   20.8950    6.1730 C.3   328  GLY328      0.2014
     62  C         22.4090   22.3510    6.6020 C.2   328  GLY328      0.2639
     63  O         22.7580   22.7250    7.7160 O.2   328  GLY328     -0.2714
     64  N         21.8690   23.1690    5.7020 N.am  329  TYR329     -0.1959
     65  CA        21.4240   24.5280    6.0120 C.3   329  TYR329      0.1771
     66  C         20.0130   24.7860    5.4630 C.2   329  TYR329      0.2620
     67  O         19.7140   24.4640    4.3100 O.2   329  TYR329     -0.2715
     68  CB        22.3920   25.5570    5.4320 C.3   329  TYR329      0.0574
     69  CG        21.7790   26.9310    5.2300 C.ar  329  TYR329     -0.0198
     70  CD1       21.2750   27.3240    3.9710 C.ar  329  TYR329     -0.0009
     71  CD2       21.7010   27.8350    6.2830 C.ar  329  TYR329     -0.0009
     72  CE1       20.7080   28.5840    3.7790 C.ar  329  TYR329      0.0417
     73  CE2       21.1470   29.0920    6.1040 C.ar  329  TYR329      0.0417
     74  CZ        20.6630   29.4650    4.8440 C.ar  329  TYR329      0.1957
     75  OH        20.1230   30.7060    4.6660 O.3   329  TYR329     -0.2866
     76  N         19.1690   25.3820    6.3020 N.am  330  GLY330     -0.1940
     77  CA        17.8460   25.8160    5.9290 C.3   330  GLY330      0.2014
     78  C         17.2300   26.6660    7.0240 C.2   330  GLY330      0.2639
     79  O         17.9000   26.9980    8.0140 O.2   330  GLY330     -0.2714
     80  N         15.9450   26.9980    6.8470 N.am  331  LEU331     -0.1963
     81  CA        15.2170   27.8840    7.7520 C.3   331  LEU331      0.1728
     82  C         13.9460   27.1520    8.0540 C.2   331  LEU331      0.2617
     83  O         13.5900   26.2560    7.2860 O.2   331  LEU331     -0.2715
     84  CB        14.8660   29.2170    7.0480 C.3   331  LEU331      0.0311
     85  CG        15.9700   30.2610    6.8710 C.3   331  LEU331      0.0022
     86  CD1       16.9180   29.9000    5.7020 C.3   331  LEU331      0.0001
     87  CD2       15.3600   31.6570    6.6820 C.3   331  LEU331      0.0001
     88  N         13.2670   27.5120    9.1490 N.am  332  THR332     -0.1937
     89  CA        11.8940   27.0410    9.3810 C.3   332  THR332      0.2028
     90  C         10.9720   27.2960    8.1520 C.2   332  THR332      0.2642
     91  O         10.2250   26.4080    7.7230 O.2   332  THR332     -0.2714
     92  CB        11.3050   27.6880   10.6430 C.3   332  THR332      0.1808
     93  OG1       12.0100   27.2210   11.8050 O.3   332  THR332     -0.2208
     94  CG2        9.9060   27.1930   10.8790 C.3   332  THR332      0.0379
     95  N         11.0500   28.5170    7.6180 N.am  333  GLU333     -0.1976
     96  CA        10.3290   28.9680    6.4250 C.3   333  GLU333      0.1602
     97  C         10.5340   28.1720    5.1030 C.2   333  GLU333      0.2287
     98  O          9.6910   28.2680    4.1930 O.2   333  GLU333     -0.2864
     99  CB        10.6290   30.4670    6.2010 C.3   333  GLU333      0.0415
    100  CG        10.0100   31.3460    7.2910 C.3   333  GLU333      0.1163
    101  CD        10.8870   31.5470    8.5170 C.2   333  GLU333      0.3649
    102  OE1       11.9230   30.8420    8.6780 O.co2 333  GLU333     -0.2457
    103  OE2       10.5470   32.4450    9.3220 O.co2 333  GLU333     -0.2457
    104  N         28.5000   24.3890    3.6380 N.3   351  SER351     -0.1217
    105  CA        27.1910   23.8710    4.0380 C.3   351  SER351      0.1889
    106  C         26.6460   22.9180    2.9950 C.2   351  SER351      0.2288
    107  O         25.7030   22.1780    3.2680 O.2   351  SER351     -0.2866
    108  CB        26.1870   24.9980    4.2910 C.3   351  SER351      0.2089
    109  OG        26.0540   25.2370    5.6870 O.3   351  SER351     -0.2183
    110  N         16.7200   35.0470    3.0950 N.3   409  THR409     -0.1218
    111  CA        17.0220   34.2920    4.3060 C.3   409  THR409      0.1862
    112  C         17.3860   35.1790    5.5000 C.2   409  THR409      0.2287
    113  O         17.1630   34.7960    6.6630 O.2   409  THR409     -0.2866
    114  CB        18.1460   33.2810    4.0590 C.3   409  THR409      0.1770
    115  OG1       19.3360   33.9680    3.6540 O.3   409  THR409     -0.2211
    116  CG2       17.8180   32.3410    2.8800 C.3   409  THR409      0.0375
    117  N         20.4090   35.6630    5.8820 N.3   411  ASP411     -0.1239
    118  CA        21.7060   35.0420    6.1440 C.3   411  ASP411      0.1674
    119  C         22.7220   35.5270    5.1540 C.2   411  ASP411      0.2266
    120  O         22.4090   35.7170    3.9800 O.2   411  ASP411     -0.2867
    121  CB        21.6260   33.5060    6.0470 C.3   411  ASP411      0.1410
    122  CG        20.7800   32.8970    7.1470 C.2   411  ASP411      0.3668
    123  OD1       20.9070   33.3460    8.2990 O.co2 411  ASP411     -0.2456
    124  OD2       19.9500   31.9800    6.9530 O.co2 411  ASP411     -0.2456
    125  N         27.9720   29.3450    4.4640 N.3   423  ILE423     -0.1231
    126  CA        27.0860   30.2290    5.2230 C.3   423  ILE423      0.1692
    127  C         27.9060   30.8460    6.3520 C.2   423  ILE423      0.2592
    128  O         28.5830   30.1290    7.1120 O.2   423  ILE423     -0.2718
    129  CB        25.7790   29.4800    5.7120 C.3   423  ILE423      0.0266
    130  CG1       25.0460   28.8240    4.5340 C.3   423  ILE423      0.0019
    131  CG2       24.8270   30.4430    6.3690 C.3   423  ILE423      0.0020
    132  CD1       24.5620   29.8120    3.4410 C.3   423  ILE423      0.0001
    133  N         27.8960   32.1730    6.4370 N.am  424  VAL424     -0.1966
    134  CA        28.8450   32.8510    7.3200 C.3   424  VAL424      0.1727
    135  C         28.1910   33.1450    8.6830 C.2   424  VAL424      0.2616
    136  O         28.6820   32.7200    9.7340 O.2   424  VAL424     -0.2715
    137  CB        29.4540   34.1240    6.6540 C.3   424  VAL424      0.0290
    138  CG1       30.3670   34.8590    7.6220 C.3   424  VAL424      0.0023
    139  CG2       30.2120   33.7660    5.3680 C.3   424  VAL424      0.0023
    140  N         27.0620   33.8410    8.6400 N.am  425  ASP425     -0.1957
    141  CA        26.3590   34.2870    9.8330 C.3   425  ASP425      0.1840
    142  C         25.0660   34.9820    9.4300 C.2   425  ASP425      0.2621
    143  O         24.7630   35.1080    8.2370 O.2   425  ASP425     -0.2715
    144  CB        27.2300   35.2610   10.6220 C.3   425  ASP425      0.1450
    145  CG        27.0630   35.1110   12.1060 C.2   425  ASP425      0.3671
    146  OD1       25.9190   34.8860   12.5630 O.co2 425  ASP425     -0.2456
    147  OD2       28.0270   35.2200   12.8930 O.co2 425  ASP425     -0.2456
    148  N         24.2990   35.4100   10.4300 N.am  426  ARG426     -0.1977
    149  CA        23.0840   36.1750   10.2100 C.3   426  ARG426      0.1597
    150  C         23.4240   37.6550    9.9680 C.2   426  ARG426      0.2287
    151  O         24.2370   38.2390   10.6890 O.2   426  ARG426     -0.2864
    152  CB        22.1720   36.0670   11.4200 C.3   426  ARG426      0.0334
    153  CG        21.4960   34.7250   11.6100 C.3   426  ARG426      0.0492
    154  CD        20.8010   34.5880   12.9610 C.3   426  ARG426      0.2205
    155  NE        21.7960   34.4340   14.0090 N.pl3 426  ARG426     -0.0865
    156  CZ        21.5830   34.5560   15.3170 C.cat 426  ARG426      0.5346
    157  NH1       20.3840   34.8430   15.7900 N.pl3 426  ARG426      0.1354
    158  NH2       22.5950   34.3930   16.1560 N.pl3 426  ARG426      0.1354
    159  N         18.6520   25.3390   18.8530 N.3   516  THR516     -0.1218
    160  CA        19.3920   24.7430   17.7440 C.3   516  THR516      0.1862
    161  C         20.8270   25.2580   17.6230 C.2   516  THR516      0.2287
    162  O         21.5090   24.9790   16.6450 O.2   516  THR516     -0.2866
    163  CB        18.6210   24.9030   16.4140 C.3   516  THR516      0.1770
    164  OG1       18.2580   26.2810   16.2290 O.3   516  THR516     -0.2211
    165  CG2       17.2880   24.1480   16.4890 C.3   516  THR516      0.0375
    166  N         21.8470   28.6920   17.9340 N.3   518  LYS518     -0.1245
    167  CA        22.0810   30.0950   17.5640 C.3   518  LYS518      0.1561
    168  C         22.2580   31.0030   18.7880 C.2   518  LYS518      0.2260
    169  O         21.4670   30.9640   19.7380 O.2   518  LYS518     -0.2867
    170  CB        21.0190   30.6520   16.6000 C.3   518  LYS518      0.0271
    171  CG        21.0590   30.0290   15.2080 C.3   518  LYS518      0.0035
    172  CD        19.8980   30.4800   14.3340 C.3   518  LYS518      0.0206
    173  CE        18.5730   30.5230   15.0600 C.3   518  LYS518      0.1093
    174  NZ        17.8530   31.8040   14.7850 N.3   518  LYS518     -0.1314
@<TRIPOS>BOND
     1   116   114    1
     2   106   107    2
     3   106   105    1
     4   110   111    1
     5   132   130    1
     6   104   105    1
     7   115   114    1
     8    72    70   ar
     9    72    74   ar
    10    70    69   ar
    11   120   119    2
    12   105   108    1
    13   114   111    1
    14    98    97    2
    15   108   109    1
    16   111   112    1
    17    67    66    2
    18   125   126    1
    19   130   129    1
    20    75    74    1
    21    74    73   ar
    22    54    53    2
    23    97    96    1
    24   119   118    1
    25   126   129    1
    26   126   127    1
    27    69    68    1
    28    69    71   ar
    29   139   137    1
    30    68    65    1
    31    66    65    1
    32    66    76   am
    33   112   113    2
    34    64    65    1
    35    64    62   am
    36    86    85    1
    37   129   131    1
    38   117   118    1
    39    77    76    1
    40    77    78    1
    41   121   118    1
    42   121   122    1
    43    73    71   ar
    44    53    60   am
    45    53    52    1
    46    61    62    1
    47    61    60    1
    48    99    96    1
    49    99   100    1
    50   127   133   am
    51   127   128    2
    52    96    95    1
    53   133   134    1
    54    51    52    1
    55    62    63    2
    56   137   134    1
    57   137   138    1
    58    87    85    1
    59    55    52    1
    60    55    56    1
    61    80    78   am
    62    80    81    1
    63    85    84    1
    64   124   122   ar
    65    78    79    2
    66    84    81    1
    67   122   123   ar
    68    83    82    2
    69   100   101    1
    70   134   135    1
    71    95    90   am
    72    59    57   am
    73    91    90    2
    74    81    82    1
    75    56    57    1
    76    57    58    2
    77    82    88   am
    78    90    89    1
    79   143   142    2
    80   101   102   ar
    81   101   103   ar
    82   140   135   am
    83   140   141    1
    84   135   136    2
    85    88    89    1
    86    89    92    1
    87   142   141    1
    88   142   148   am
    89   141   144    1
    90   150   149    1
    91   150   151    2
    92   149   148    1
    93   149   152    1
    94   144   145    1
    95    92    94    1
    96    92    93    1
    97    46    45    2
    98    24    23    1
    99    24    25    1
   100   152   153    1
   101   153   154    1
   102    50    48    1
   103    27    25   am
   104    27    28    1
   105    43    44    1
   106    43    38   am
   107    37    40    1
   108    37    36    1
   109    37    38    1
   110   145   146   ar
   111   145   147   ar
   112    47    48    1
   113    47    44    1
   114    45    44    1
   115    25    26    2
   116    40    41    1
   117    48    49    1
   118    34    33    2
   119    41    42    1
   120    36    33   am
   121    36    42    1
   122    38    39    2
   123    28    29    1
   124    33    32    1
   125   154   155    1
   126    31    29   am
   127    31    32    1
   128    29    30    2
   129    32    35    1
   130    21    19   ar
   131    21    22   ar
   132     5     6    1
   133     5     2    1
   134   155   156    2
   135    16    15    2
   136    19    18   ar
   137    15    14    1
   138   172   173    1
   139   172   171    1
   140    22    20   ar
   141     2     1    1
   142     2     3    1
   143   174   173    1
   144   171   170    1
   145   156   157    1
   146   156   158    1
   147    18    20   ar
   148    18    17    1
   149    14    17    1
   150    14    13    1
   151     3     7   am
   152     3     4    2
   153     7     8    1
   154   164   163    1
   155    12    11    1
   156   163   165    1
   157   163   160    1
   158   170   167    1
   159   162   161    2
   160    10     9    2
   161    11     8    1
   162     8     9    1
   163   167   166    1
   164   167   168    1
   165   161   160    1
   166   160   159    1
   167   168   169    2
