@<TRIPOS>MOLECULE
tmp/2d1rA01.pdb
 163 155 0 0 0
SMALL
GASTEIGER

@<TRIPOS>ATOM
      1  N         10.2760   16.9510    0.7120 N.3   212  ARG212     -0.1245
      2  CA        11.2740   16.5240    1.6840 C.3   212  ARG212      0.1563
      3  C         11.4750   15.0220    1.6250 C.2   212  ARG212      0.2260
      4  O         12.6070   14.5570    1.7360 O.2   212  ARG212     -0.2867
      5  CB        10.8840   16.9850    3.1140 C.3   212  ARG212      0.0307
      6  CG        11.7400   16.3160    4.2230 C.3   212  ARG212      0.0489
      7  CD        13.2370   16.7240    4.1680 C.3   212  ARG212      0.2205
      8  NE        14.0630   15.8880    5.0260 N.pl3 212  ARG212     -0.0865
      9  CZ        15.3680   15.7190    4.8730 C.cat 212  ARG212      0.5346
     10  NH1       16.0210   16.3450    3.8800 N.pl3 212  ARG212      0.1354
     11  NH2       16.0290   14.9040    5.6890 N.pl3 212  ARG212      0.1354
     12  N         10.7200   21.3630   16.2660 N.3   239  HIS239     -0.1226
     13  CA        11.3150   22.2960   15.3090 C.3   239  HIS239      0.1752
     14  C         11.5510   21.6140   13.9550 C.2   239  HIS239      0.2597
     15  O         11.7670   20.4060   13.9010 O.2   239  HIS239     -0.2718
     16  CB        12.6350   22.8140   15.9010 C.3   239  HIS239      0.0759
     17  CG        13.3180   23.8630   15.0860 C.ar  239  HIS239      0.0818
     18  ND1       14.1180   23.5610   14.0060 N.ar  239  HIS239     -0.2268
     19  CD2       13.3680   25.2100   15.2270 C.ar  239  HIS239      0.1154
     20  CE1       14.5950   24.6810   13.4860 C.ar  239  HIS239      0.1986
     21  NE2       14.1650   25.6950   14.2170 N.ar  239  HIS239     -0.2212
     22  N         11.5090   22.3880   12.8700 N.am  240  GLY240     -0.1942
     23  CA        11.7280   21.8380   11.5260 C.3   240  GLY240      0.2014
     24  C         12.9450   20.9340   11.3560 C.2   240  GLY240      0.2638
     25  O         12.8980   19.9480   10.6150 O.2   240  GLY240     -0.2714
     26  N         14.0400   21.2770   12.0250 N.am  241  PHE241     -0.1973
     27  CA        15.2600   20.5090   11.9310 C.3   241  PHE241      0.1639
     28  C         15.0020   19.0540   12.4330 C.2   241  PHE241      0.2290
     29  O         15.2530   18.0800   11.7150 O.2   241  PHE241     -0.2864
     30  CB        16.3380   21.2500   12.7550 C.3   241  PHE241      0.0560
     31  CG        17.7200   20.6930   12.6420 C.ar  241  PHE241     -0.0200
     32  CD1       18.0550   19.7040   11.7190 C.ar  241  PHE241     -0.0042
     33  CD2       18.7100   21.1830   13.5000 C.ar  241  PHE241     -0.0042
     34  CE1       19.3570   19.2080   11.6500 C.ar  241  PHE241     -0.0003
     35  CE2       20.0090   20.6870   13.4430 C.ar  241  PHE241     -0.0003
     36  CZ        20.3340   19.7090   12.5170 C.ar  241  PHE241     -0.0000
     37  N         14.0780   15.7980    9.5860 N.3   245  THR245     -0.1218
     38  CA        15.0410   14.7100    9.6200 C.3   245  THR245      0.1862
     39  C         14.3600   13.4610   10.1240 C.2   245  THR245      0.2287
     40  O         14.4860   12.4150    9.4810 O.2   245  THR245     -0.2866
     41  CB        16.2780   15.0420   10.4810 C.3   245  THR245      0.1770
     42  OG1       15.8790   15.4700   11.7870 O.3   245  THR245     -0.2211
     43  CG2       17.0310   16.2150    9.8430 C.3   245  THR245      0.0375
     44  N         23.0350   13.0130   13.9390 N.3   280  ILE280     -0.1245
     45  CA        22.6440   14.3430   13.5530 C.3   280  ILE280      0.1561
     46  C         22.6920   15.2510   14.7940 C.2   280  ILE280      0.2260
     47  O         22.0640   14.9590   15.8240 O.2   280  ILE280     -0.2867
     48  CB        21.2880   14.3200   12.7810 C.3   280  ILE280      0.0252
     49  CG1       20.8430   15.7340   12.3780 C.3   280  ILE280      0.0019
     50  CG2       20.2140   13.4960   13.5150 C.3   280  ILE280      0.0019
     51  CD1       21.8480   16.4320   11.4600 C.3   280  ILE280      0.0001
     52  N         26.6390   14.5300   10.8190 N.3   307  ALA307     -0.1231
     53  CA        25.9520   15.6450   10.1810 C.3   307  ALA307      0.1694
     54  C         25.6460   16.7680   11.1690 C.2   307  ALA307      0.2592
     55  O         25.4380   16.5270   12.3480 O.2   307  ALA307     -0.2718
     56  CB        24.6920   15.1530    9.5030 C.3   307  ALA307      0.0304
     57  N         25.6020   17.9900   10.6460 N.am  308  SER308     -0.1952
     58  CA        25.3200   19.1830   11.4330 C.3   308  SER308      0.1924
     59  C         24.2930   20.0190   10.7150 C.2   308  SER308      0.2314
     60  O         24.1630   19.9490    9.4860 O.2   308  SER308     -0.2863
     61  CB        26.5730   20.0340   11.5740 C.3   308  SER308      0.2116
     62  OG        26.3270   21.1850   12.3800 O.3   308  SER308     -0.2180
     63  N         21.3430   23.6920   11.6400 N.3   310  GLY310     -0.1225
     64  CA        20.7020   24.6030   12.5760 C.3   310  GLY310      0.1811
     65  C         21.3880   25.9270   12.8210 C.2   310  GLY310      0.2280
     66  O         20.7100   26.9200   13.0410 O.2   310  GLY310     -0.2866
     67  N         28.8080   16.1350    7.1970 N.3   331  ARG331     -0.1231
     68  CA        27.6740   16.3900    6.3090 C.3   331  ARG331      0.1694
     69  C         26.9110   17.5700    6.8850 C.2   331  ARG331      0.2592
     70  O         26.7000   17.6540    8.0950 O.2   331  ARG331     -0.2718
     71  CB        26.7910   15.1470    6.2540 C.3   331  ARG331      0.0321
     72  CG        25.7950   15.0870    5.1270 C.3   331  ARG331      0.0489
     73  CD        26.0350   13.9400    4.1420 C.3   331  ARG331      0.2205
     74  NE        25.1470   14.0480    2.9850 N.pl3 331  ARG331     -0.0865
     75  CZ        24.1650   13.2050    2.7010 C.cat 331  ARG331      0.5346
     76  NH1       23.9250   12.1560    3.4840 N.pl3 331  ARG331      0.1354
     77  NH2       23.4180   13.4040    1.6190 N.pl3 331  ARG331      0.1354
     78  N         26.5150   18.5040    6.0330 N.am  332  GLN332     -0.1966
     79  CA        25.8000   19.6690    6.5370 C.3   332  GLN332      0.1733
     80  C         24.5050   19.8810    5.7720 C.2   332  GLN332      0.2617
     81  O         24.3640   19.4560    4.6240 O.2   332  GLN332     -0.2715
     82  CB        26.6860   20.9110    6.4660 C.3   332  GLN332      0.0408
     83  CG        26.1710   22.0800    7.2940 C.3   332  GLN332      0.0908
     84  CD        27.2710   23.0630    7.7170 C.2   332  GLN332      0.2608
     85  OE1       28.4120   23.0050    7.2430 O.2   332  GLN332     -0.2717
     86  NE2       26.9180   23.9600    8.6120 N.am  332  GLN332     -0.0878
     87  N         23.5580   20.5310    6.4390 N.am  333  GLY333     -0.1940
     88  CA        22.3150   20.9630    5.8170 C.3   333  GLY333      0.2014
     89  C         22.0020   22.3610    6.3150 C.2   333  GLY333      0.2639
     90  O         22.2490   22.6750    7.4870 O.2   333  GLY333     -0.2714
     91  N         21.4510   23.1720    5.4200 N.am  334  TYR334     -0.1959
     92  CA        21.0560   24.5410    5.7200 C.3   334  TYR334      0.1771
     93  C         19.6620   24.7630    5.1880 C.2   334  TYR334      0.2620
     94  O         19.3730   24.4580    4.0330 O.2   334  TYR334     -0.2715
     95  CB        22.0220   25.5250    5.0380 C.3   334  TYR334      0.0574
     96  CG        21.4440   26.9180    4.8650 C.ar  334  TYR334     -0.0198
     97  CD1       21.3470   27.7920    5.9400 C.ar  334  TYR334     -0.0009
     98  CD2       20.9880   27.3470    3.6270 C.ar  334  TYR334     -0.0009
     99  CE1       20.8030   29.0870    5.7780 C.ar  334  TYR334      0.0417
    100  CE2       20.4350   28.6080    3.4540 C.ar  334  TYR334      0.0417
    101  CZ        20.3550   29.4670    4.5290 C.ar  334  TYR334      0.1957
    102  OH        19.8160   30.7120    4.3620 O.3   334  TYR334     -0.2866
    103  N         18.7900   25.2370    6.0700 N.am  335  GLY335     -0.1940
    104  CA        17.4370   25.5930    5.6850 C.3   335  GLY335      0.2014
    105  C         16.8230   26.4560    6.7560 C.2   335  GLY335      0.2639
    106  O         17.4670   26.8090    7.7520 O.2   335  GLY335     -0.2714
    107  N         15.5630   26.8130    6.5320 N.am  336  LEU336     -0.1963
    108  CA        14.7930   27.6410    7.4630 C.3   336  LEU336      0.1728
    109  C         13.4750   26.9390    7.7360 C.2   336  LEU336      0.2616
    110  O         13.0250   26.1240    6.9200 O.2   336  LEU336     -0.2715
    111  CB        14.4610   28.9820    6.8140 C.3   336  LEU336      0.0311
    112  CG        15.5090   30.0880    6.6470 C.3   336  LEU336      0.0022
    113  CD1       16.6100   29.7030    5.6990 C.3   336  LEU336      0.0001
    114  CD2       14.7970   31.3410    6.1720 C.3   336  LEU336      0.0001
    115  N         12.8230   27.2790    8.8550 N.am  337  THR337     -0.1951
    116  CA        11.4820   26.7400    9.1060 C.3   337  THR337      0.1897
    117  C         10.5720   27.0100    7.8900 C.2   337  THR337      0.2313
    118  O          9.8150   26.1340    7.4520 O.2   337  THR337     -0.2863
    119  CB        10.9110   27.4010   10.3820 C.3   337  THR337      0.1794
    120  OG1       11.6830   26.9480   11.5050 O.3   337  THR337     -0.2208
    121  CG2        9.5050   26.8500   10.6940 C.3   337  THR337      0.0378
    122  N         10.6710   24.5280    5.0030 N.3   340  THR340     -0.1203
    123  CA        10.3820   23.1490    5.4690 C.3   340  THR340      0.1994
    124  C         11.6020   22.5070    6.0840 C.2   340  THR340      0.2619
    125  O         11.6310   22.2500    7.2810 O.2   340  THR340     -0.2717
    126  CB         9.8240   22.2580    4.3340 C.3   340  THR340      0.1784
    127  OG1        8.6560   22.8710    3.7870 O.3   340  THR340     -0.2211
    128  CG2        9.3270   20.8930    4.8780 C.3   340  THR340      0.0376
    129  N         12.6030   22.2410    5.2510 N.am  341  SER341     -0.1937
    130  CA        13.7860   21.5400    5.6810 C.3   341  SER341      0.2055
    131  C         15.0070   22.1380    4.9890 C.2   341  SER341      0.2642
    132  O         14.9720   23.2760    4.4900 O.2   341  SER341     -0.2714
    133  CB        13.6290   20.0300    5.3730 C.3   341  SER341      0.2130
    134  OG        14.7010   19.2810    5.9290 O.3   341  SER341     -0.2179
    135  N         16.0960   21.3780    4.9440 N.am  342  ALA342     -0.1977
    136  CA        17.3300   21.8840    4.3280 C.3   342  ALA342      0.1597
    137  C         17.1530   22.0670    2.8270 C.2   342  ALA342      0.2287
    138  O         16.6560   21.1620    2.1560 O.2   342  ALA342     -0.2864
    139  CB        18.4680   20.9200    4.6000 C.3   342  ALA342      0.0319
    140  N         22.4090   21.1120    0.8860 N.3   345  ILE345     -0.1245
    141  CA        22.8500   19.9040    1.5980 C.3   345  ILE345      0.1561
    142  C         24.1470   19.4290    0.9570 C.2   345  ILE345      0.2260
    143  O         24.2620   19.4730   -0.2610 O.2   345  ILE345     -0.2867
    144  CB        21.7950   18.7830    1.4690 C.3   345  ILE345      0.0252
    145  CG1       20.5060   19.1680    2.2140 C.3   345  ILE345      0.0019
    146  CG2       22.3390   17.4470    2.0610 C.3   345  ILE345      0.0019
    147  CD1       19.3750   18.1720    2.0750 C.3   345  ILE345      0.0001
    148  N         17.9230   25.5340   18.6300 N.3   521  THR521     -0.1218
    149  CA        18.7620   24.8230   17.6580 C.3   521  THR521      0.1862
    150  C         20.1610   25.4190   17.4970 C.2   521  THR521      0.2287
    151  O         20.8240   25.2100   16.4650 O.2   521  THR521     -0.2866
    152  CB        18.0680   24.7150   16.2810 C.3   521  THR521      0.1770
    153  OG1       17.6410   26.0180   15.8640 O.3   521  THR521     -0.2211
    154  CG2       16.7570   23.8890   16.3800 C.3   521  THR521      0.0375
    155  N         21.3180   28.7260   17.7050 N.3   523  LYS523     -0.1245
    156  CA        21.5890   30.0780   17.2180 C.3   523  LYS523      0.1561
    157  C         21.8050   31.0090   18.3980 C.2   523  LYS523      0.2260
    158  O         21.0590   30.9540   19.3900 O.2   523  LYS523     -0.2867
    159  CB        20.4610   30.5860   16.3250 C.3   523  LYS523      0.0271
    160  CG        20.2750   29.7500   15.0610 C.3   523  LYS523      0.0035
    161  CD        19.4020   30.4580   14.0250 C.3   523  LYS523      0.0206
    162  CE        17.9230   30.4520   14.3930 C.3   523  LYS523      0.1093
    163  NZ        17.3900   29.0800   14.6720 N.3   523  LYS523     -0.1314
@<TRIPOS>BOND
     1   143   142    2
     2     1     2    1
     3   140   141    1
     4   142   141    1
     5   144   141    1
     6   144   146    1
     7   144   145    1
     8    77    75    1
     9     3     2    1
    10     3     4    2
    11     2     5    1
    12   147   145    1
    13   138   137    2
    14    75    74    2
    15    75    76    1
    16   137   136    1
    17    74    73    1
    18     5     6    1
    19   100    98   ar
    20   100   101   ar
    21    98    96   ar
    22   127   126    1
    23    10     9    1
    24    94    93    2
    25    73    72    1
    26     7     6    1
    27     7     8    1
    28   136   139    1
    29   136   135    1
    30   126   128    1
    31   126   123    1
    32   102   101    1
    33   132   131    2
    34   101    99   ar
    35    81    80    2
    36    96    95    1
    37    96    97   ar
    38     9     8    2
    39     9    11    1
    40   135   131   am
    41   131   130    1
    42   122   123    1
    43    95    92    1
    44    72    71    1
    45    93    92    1
    46    93   103   am
    47   129   130    1
    48   129   124   am
    49   133   130    1
    50   133   134    1
    51    91    92    1
    52    91    89   am
    53   123   124    1
    54   104   103    1
    55   104   105    1
    56   113   112    1
    57    80    87   am
    58    80    79    1
    59    99    97   ar
    60    88    89    1
    61    88    87    1
    62    78    79    1
    63    78    69   am
    64   124   125    2
    65   114   112    1
    66    71    68    1
    67    68    69    1
    68    68    67    1
    69    89    90    2
    70    82    79    1
    71    82    83    1
    72   107   105   am
    73   107   108    1
    74   112   111    1
    75   105   106    2
    76   111   108    1
    77    69    70    2
    78   110   109    2
    79    85    84    2
    80    83    84    1
    81   118   117    2
    82   108   109    1
    83    84    86   am
    84   109   115   am
    85   117   116    1
    86   115   116    1
    87   116   119    1
    88    40    39    2
    89    60    59    2
    90    56    53    1
    91    37    38    1
    92    38    39    1
    93    38    41    1
    94    43    41    1
    95    53    52    1
    96    53    54    1
    97   119   121    1
    98   119   120    1
    99    41    42    1
   100    25    24    2
   101    57    54   am
   102    57    58    1
   103    59    58    1
   104    54    55    2
   105    24    23    1
   106    24    26   am
   107    58    61    1
   108    51    49    1
   109    23    22    1
   110    61    62    1
   111    63    64    1
   112    34    32   ar
   113    34    36   ar
   114    29    28    2
   115    32    31   ar
   116    27    26    1
   117    27    28    1
   118    27    30    1
   119    49    48    1
   120    36    35   ar
   121    64    65    1
   122    31    30    1
   123    31    33   ar
   124    48    50    1
   125    48    45    1
   126    65    66    2
   127    22    14   am
   128    35    33   ar
   129    20    18   ar
   130    20    21   ar
   131    45    44    1
   132    45    46    1
   133    15    14    2
   134    14    13    1
   135    18    17   ar
   136   161   162    1
   137   161   160    1
   138    21    19   ar
   139   162   163    1
   140    46    47    2
   141   160   159    1
   142    17    19   ar
   143    17    16    1
   144    13    16    1
   145    13    12    1
   146   153   152    1
   147   152   154    1
   148   152   149    1
   149   159   156    1
   150   151   150    2
   151   156   155    1
   152   156   157    1
   153   150   149    1
   154   149   148    1
   155   157   158    2
