@<TRIPOS>MOLECULE
tmp/2d1xC00.pdb
 99 97 0 0 0
SMALL
GASTEIGER

@<TRIPOS>ATOM
      1  N         28.1760   42.9380   39.6410 N.3    17  TYR17      -0.1241
      2  CA        29.4710   43.6040   39.5780 C.3    17  TYR17       0.1605
      3  C         29.4260   44.7970   38.6340 C.2    17  TYR17       0.2264
      4  O         28.4660   44.9700   37.8880 O.2    17  TYR17      -0.2867
      5  CB        30.5210   42.6180   39.0690 C.3    17  TYR17       0.0534
      6  CG        30.3310   41.1960   39.5550 C.ar   17  TYR17      -0.0201
      7  CD1       30.6880   40.8210   40.8520 C.ar   17  TYR17      -0.0009
      8  CD2       29.7900   40.2240   38.7170 C.ar   17  TYR17      -0.0009
      9  CE1       30.5120   39.5070   41.2990 C.ar   17  TYR17       0.0417
     10  CE2       29.6070   38.9150   39.1490 C.ar   17  TYR17       0.0417
     11  CZ        29.9690   38.5610   40.4400 C.ar   17  TYR17       0.1957
     12  OH        29.7810   37.2610   40.8680 O.3    17  TYR17      -0.2866
     13  N         30.3810   46.9640   35.3670 N.3    19  TYR19      -0.1241
     14  CA        30.6220   46.5700   33.9960 C.3    19  TYR19       0.1605
     15  C         30.6390   47.8020   33.1100 C.2    19  TYR19       0.2264
     16  O         29.6630   48.5400   33.0340 O.2    19  TYR19      -0.2867
     17  CB        29.5580   45.5920   33.4880 C.3    19  TYR19       0.0534
     18  CG        29.8520   45.1680   32.0710 C.ar   19  TYR19      -0.0201
     19  CD1       30.9280   44.3200   31.7920 C.ar   19  TYR19      -0.0009
     20  CD2       29.1440   45.7100   30.9970 C.ar   19  TYR19      -0.0009
     21  CE1       31.3000   44.0320   30.4840 C.ar   19  TYR19       0.0417
     22  CE2       29.5100   45.4290   29.6790 C.ar   19  TYR19       0.0417
     23  CZ        30.5910   44.5920   29.4330 C.ar   19  TYR19       0.1957
     24  OH        30.9860   44.3350   28.1380 O.3    19  TYR19      -0.2866
     25  N         31.9590   48.2920   26.3720 N.3    22  ALA22      -0.1245
     26  CA        33.1570   48.4080   25.5520 C.3    22  ALA22       0.1562
     27  C         32.7660   48.9740   24.1940 C.2    22  ALA22       0.2260
     28  O         33.5780   49.5900   23.5090 O.2    22  ALA22      -0.2867
     29  CB        33.8230   47.0460   25.3900 C.3    22  ALA22       0.0290
     30  N         27.0040   49.1980   21.5000 N.3    25  ASP25      -0.1225
     31  CA        25.9310   48.2220   21.4500 C.3    25  ASP25       0.1805
     32  C         25.8110   47.5780   22.8390 C.2    25  ASP25       0.2597
     33  O         25.0210   46.6600   23.0430 O.2    25  ASP25      -0.2718
     34  CB        26.2340   47.1670   20.3810 C.3    25  ASP25       0.1424
     35  CG        27.5010   46.3690   20.6750 C.2    25  ASP25       0.3668
     36  OD1       28.5440   46.9730   21.0080 O.co2  25  ASP25      -0.2456
     37  OD2       27.4520   45.1250   20.5580 O.co2  25  ASP25      -0.2456
     38  N         26.5980   48.0980   23.7850 N.am   26  GLU26      -0.1979
     39  CA        26.6430   47.6180   25.1700 C.3    26  GLU26       0.1602
     40  C         26.2070   48.6610   26.2120 C.2    26  GLU26       0.2287
     41  O         26.2130   49.8670   25.9580 O.2    26  GLU26      -0.2864
     42  CB        28.0670   47.1570   25.5140 C.3    26  GLU26       0.0415
     43  CG        28.4810   45.8210   24.9210 C.3    26  GLU26       0.1163
     44  CD        29.9490   45.4980   25.1620 C.2    26  GLU26       0.3649
     45  OE1       30.4630   45.7980   26.2620 O.co2  26  GLU26      -0.2457
     46  OE2       30.5910   44.9310   24.2530 O.co2  26  GLU26      -0.2457
     47  N         26.2810   33.7290   26.8670 N.3    44  GLY44      -0.1210
     48  CA        27.0410   34.8120   27.4640 C.3    44  GLY44       0.1956
     49  C         26.4460   36.2060   27.4660 C.2    44  GLY44       0.2611
     50  O         26.5420   36.9250   28.4610 O.2    44  GLY44      -0.2717
     51  N         25.8280   36.5970   26.3620 N.am   45  TRP45      -0.1976
     52  CA        25.2750   37.9320   26.2750 C.3    45  TRP45       0.1640
     53  C         23.7730   38.0340   26.2810 C.2    45  TRP45       0.2290
     54  O         23.0800   37.2630   25.6290 O.2    45  TRP45      -0.2864
     55  CB        25.7850   38.6360   25.0200 C.3    45  TRP45       0.0576
     56  CG        27.2580   38.7970   24.9790 C.ar   45  TRP45       0.0006
     57  CD1       28.1600   37.9630   24.3790 C.ar   45  TRP45       0.0946
     58  CD2       28.0180   39.8590   25.5720 C.ar   45  TRP45       0.0152
     59  NE1       29.4360   38.4440   24.5600 N.ar   45  TRP45      -0.2442
     60  CE2       29.3790   39.6050   25.2890 C.ar   45  TRP45       0.0810
     61  CE3       27.6820   40.9980   26.3130 C.ar   45  TRP45       0.0012
     62  CZ2       30.4060   40.4540   25.7220 C.ar   45  TRP45       0.0191
     63  CZ3       28.7030   41.8430   26.7440 C.ar   45  TRP45       0.0001
     64  CH2       30.0470   41.5650   26.4460 C.ar   45  TRP45       0.0015
     65  N         23.6080   45.4270   25.0890 N.3    56  LEU56      -0.1245
     66  CA        24.0930   44.1180   25.4840 C.3    56  LEU56       0.1561
     67  C         24.9690   44.1630   26.7310 C.2    56  LEU56       0.2260
     68  O         25.6750   45.1370   26.9780 O.2    56  LEU56      -0.2867
     69  CB        24.8840   43.4970   24.3300 C.3    56  LEU56       0.0270
     70  CG        24.1600   43.2420   22.9970 C.3    56  LEU56       0.0019
     71  CD1       25.1630   42.7230   21.9780 C.3    56  LEU56       0.0001
     72  CD2       23.0490   42.2330   23.1780 C.3    56  LEU56       0.0001
     73  N         26.9730   41.2360   29.8440 N.3    58  PRO58      -0.2116
     74  CA        27.3310   39.8700   30.2440 C.3    58  PRO58       0.1372
     75  C         26.2830   39.2660   31.1820 C.2    58  PRO58       0.2244
     76  O         26.0450   39.7790   32.2770 O.2    58  PRO58      -0.2868
     77  CB        28.6800   40.0520   30.9440 C.3    58  PRO58       0.0268
     78  CG        29.2150   41.3240   30.3640 C.3    58  PRO58       0.0207
     79  CD        27.9940   42.1930   30.3010 C.3    58  PRO58       0.0892
     80  N         26.4140   36.7590   33.0210 N.3    60  ASN60      -0.1225
     81  CA        27.0260   36.3580   34.2860 C.3    60  ASN60       0.1785
     82  C         27.3160   37.4780   35.2860 C.2    60  ASN60       0.2597
     83  O         27.7800   37.2110   36.3950 O.2    60  ASN60      -0.2718
     84  CB        28.3130   35.5540   33.9960 C.3    60  ASN60       0.1169
     85  CG        29.0700   36.0570   32.7450 C.2    60  ASN60       0.2627
     86  OD1       28.4960   36.1830   31.6430 O.2    60  ASN60      -0.2716
     87  ND2       30.3640   36.3250   32.9110 N.am   60  ASN60      -0.0877
     88  N         27.0410   38.7250   34.9010 N.am   61  TYR61      -0.1976
     89  CA        27.2820   39.8690   35.7810 C.3    61  TYR61       0.1639
     90  C         26.0230   40.3210   36.5090 C.2    61  TYR61       0.2290
     91  O         26.0700   41.2610   37.2940 O.2    61  TYR61      -0.2864
     92  CB        27.8410   41.0500   34.9850 C.3    61  TYR61       0.0560
     93  CG        29.3360   41.0250   34.8050 C.ar   61  TYR61      -0.0198
     94  CD1       29.9790   39.8980   34.2780 C.ar   61  TYR61      -0.0009
     95  CD2       30.1140   42.1210   35.1590 C.ar   61  TYR61      -0.0009
     96  CE1       31.3650   39.8670   34.1100 C.ar   61  TYR61       0.0417
     97  CE2       31.4950   42.1040   34.9970 C.ar   61  TYR61       0.0417
     98  CZ        32.1140   40.9740   34.4720 C.ar   61  TYR61       0.1957
     99  OH        33.4770   40.9570   34.2980 O.3    61  TYR61      -0.2866
@<TRIPOS>BOND
     1    34    35    1
     2    34    31    1
     3    37    35   ar
     4    35    36   ar
     5    31    30    1
     6    31    32    1
     7    71    70    1
     8    32    33    2
     9    32    38   am
    10    70    72    1
    11    70    69    1
    12    28    27    2
    13    38    39    1
    14    27    26    1
    15    46    44   ar
    16    69    66    1
    17    57    59   ar
    18    57    56   ar
    19    59    60   ar
    20    43    44    1
    21    43    42    1
    22    56    55    1
    23    56    58   ar
    24    55    52    1
    25    65    66    1
    26    44    45   ar
    27    39    42    1
    28    39    40    1
    29    60    58   ar
    30    60    62   ar
    31    29    26    1
    32    66    67    1
    33    26    25    1
    34    58    61   ar
    35    54    53    2
    36    62    64   ar
    37    41    40    2
    38    52    53    1
    39    52    51    1
    40    61    63   ar
    41    51    49   am
    42    64    63   ar
    43    67    68    2
    44    47    48    1
    45    48    49    1
    46    49    50    2
    47    24    23    1
    48    23    22   ar
    49    23    21   ar
    50    22    20   ar
    51    73    74    1
    52    73    79    1
    53    74    77    1
    54    74    75    1
    55    79    78    1
    56    78    77    1
    57    21    19   ar
    58    20    18   ar
    59    75    76    2
    60    86    85    2
    61    19    18   ar
    62    18    17    1
    63    85    87   am
    64    85    84    1
    65    80    81    1
    66    16    15    2
    67    15    14    1
    68    17    14    1
    69    14    13    1
    70    84    81    1
    71    96    94   ar
    72    96    98   ar
    73    94    93   ar
    74    81    82    1
    75    99    98    1
    76    98    97   ar
    77    93    92    1
    78    93    95   ar
    79    88    82   am
    80    88    89    1
    81    92    89    1
    82    97    95   ar
    83    82    83    2
    84    89    90    1
    85    90    91    2
    86     4     3    2
    87     3     2    1
    88     8    10   ar
    89     8     6   ar
    90     5     6    1
    91     5     2    1
    92    10    11   ar
    93     6     7   ar
    94     2     1    1
    95    11    12    1
    96    11     9   ar
    97     7     9   ar
