@<TRIPOS>MOLECULE
tmp/2d1yC00.pdb
 208 198 0 0 0
SMALL
GASTEIGER

@<TRIPOS>ATOM
      1  N         47.3940   55.2070   47.4900 N.3    12  GLY12      -0.1225
      2  CA        47.1670   56.5310   48.0470 C.3    12  GLY12       0.1811
      3  C         48.2230   56.9140   49.0650 C.2    12  GLY12       0.2280
      4  O         47.9090   57.4640   50.1210 O.2    12  GLY12      -0.2866
      5  N         50.1800   61.2210   50.7530 N.3    15  ARG15      -0.1231
      6  CA        50.0810   62.0090   51.9780 C.3    15  ARG15       0.1694
      7  C         49.2630   61.2930   53.0520 C.2    15  ARG15       0.2593
      8  O         48.8910   60.1310   52.8910 O.2    15  ARG15      -0.2718
      9  CB        49.4250   63.3560   51.6700 C.3    15  ARG15       0.0321
     10  CG        47.9750   63.2240   51.2360 C.3    15  ARG15       0.0489
     11  CD        47.3140   64.5690   51.0160 C.3    15  ARG15       0.2205
     12  NE        45.8600   64.4370   51.0230 N.pl3  15  ARG15      -0.0865
     13  CZ        45.0150   65.4600   50.9870 C.cat  15  ARG15       0.5346
     14  NH1       45.4790   66.7030   50.9350 N.pl3  15  ARG15       0.1354
     15  NH2       43.7080   65.2400   51.0230 N.pl3  15  ARG15       0.1354
     16  N         48.9950   62.0060   54.1440 N.am   16  GLY16      -0.1942
     17  CA        48.2060   61.4660   55.2410 C.3    16  GLY16       0.2014
     18  C         48.6050   60.0990   55.7670 C.2    16  GLY16       0.2638
     19  O         49.7850   59.8020   55.9390 O.2    16  GLY16      -0.2714
     20  N         47.6060   59.2620   56.0270 N.am   17  ILE17      -0.1977
     21  CA        47.8440   57.9230   56.5540 C.3    17  ILE17       0.1596
     22  C         48.6610   57.0510   55.6030 C.2    17  ILE17       0.2287
     23  O         49.5550   56.3250   56.0390 O.2    17  ILE17      -0.2864
     24  CB        46.4990   57.2350   56.8980 C.3    17  ILE17       0.0276
     25  CG1       45.8440   57.9730   58.0690 C.3    17  ILE17       0.0022
     26  CG2       46.7270   55.7720   57.2680 C.3    17  ILE17       0.0022
     27  CD1       44.4390   57.5150   58.3940 C.3    17  ILE17       0.0001
     28  N         49.3900   57.0180   43.6350 N.3    36  ASP36      -0.1225
     29  CA        48.5060   58.0960   44.0310 C.3    36  ASP36       0.1805
     30  C         48.2080   58.9520   42.8200 C.2    36  ASP36       0.2598
     31  O         48.9360   58.9160   41.8300 O.2    36  ASP36      -0.2718
     32  CB        49.1640   58.9510   45.1140 C.3    36  ASP36       0.1424
     33  CG        48.1520   59.6740   45.9720 C.2    36  ASP36       0.3668
     34  OD1       47.4290   60.5440   45.4440 O.co2  36  ASP36      -0.2456
     35  OD2       48.0740   59.3610   47.1790 O.co2  36  ASP36      -0.2456
     36  N         47.1270   59.7140   42.9050 N.am   37  LEU37      -0.1966
     37  CA        46.7410   60.6210   41.8600 C.3    37  LEU37       0.1728
     38  C         47.5900   61.8640   41.9700 C.2    37  LEU37       0.2616
     39  O         47.8620   62.5510   40.9940 O.2    37  LEU37      -0.2715
     40  CB        45.2670   60.9760   42.0570 C.3    37  LEU37       0.0311
     41  CG        44.3710   60.3740   40.9710 C.3    37  LEU37       0.0022
     42  CD1       42.9780   61.0060   40.9480 C.3    37  LEU37       0.0001
     43  CD2       44.9470   60.5480   39.5650 C.3    37  LEU37       0.0001
     44  N         48.0160   62.1350   43.2010 N.am   38  ARG38      -0.1977
     45  CA        48.8330   63.3060   43.5170 C.3    38  ARG38       0.1597
     46  C         50.2990   63.0990   43.1460 C.2    38  ARG38       0.2287
     47  O         50.9290   62.1370   43.5810 O.2    38  ARG38      -0.2864
     48  CB        48.7240   63.6250   45.0120 C.3    38  ARG38       0.0334
     49  CG        47.3260   64.0140   45.4670 C.3    38  ARG38       0.0492
     50  CD        47.2240   64.0520   46.9900 C.3    38  ARG38       0.2205
     51  NE        45.8790   64.3940   47.4440 N.pl3  38  ARG38      -0.0865
     52  CZ        45.3830   65.6270   47.4660 C.cat  38  ARG38       0.5346
     53  NH1       46.1230   66.6480   47.0630 N.pl3  38  ARG38       0.1354
     54  NH2       44.1430   65.8390   47.8860 N.pl3  38  ARG38       0.1354
     55  N         48.7000   56.9170   39.5340 N.3    55  VAL55      -0.1231
     56  CA        47.6560   56.0090   39.1060 C.3    55  VAL55       0.1692
     57  C         46.2720   56.5110   39.5000 C.2    55  VAL55       0.2592
     58  O         46.0350   57.0010   40.5950 O.2    55  VAL55      -0.2718
     59  CB        47.9180   54.6760   39.8050 C.3    55  VAL55       0.0266
     60  CG1       46.7430   53.7230   39.5870 C.3    55  VAL55       0.0020
     61  CG2       49.1930   54.0520   39.2710 C.3    55  VAL55       0.0020
     62  N         45.3430   56.4140   38.5410 N.am   56  ASP56      -0.1960
     63  CA        43.9570   56.6680   38.8970 C.3    56  ASP56       0.1840
     64  C         43.2360   55.3670   39.2500 C.2    56  ASP56       0.2622
     65  O         42.8250   54.6020   38.3870 O.2    56  ASP56      -0.2715
     66  CB        43.2590   57.3490   37.7230 C.3    56  ASP56       0.1450
     67  CG        41.8830   57.8120   38.1780 C.2    56  ASP56       0.3671
     68  OD1       41.4510   57.3400   39.2310 O.co2  56  ASP56      -0.2456
     69  OD2       41.2770   58.6440   37.5040 O.co2  56  ASP56      -0.2456
     70  N         43.1220   55.0410   40.5310 N.am   57  LEU57      -0.1963
     71  CA        42.5450   53.7700   40.9540 C.3    57  LEU57       0.1728
     72  C         41.0800   53.5490   40.5840 C.2    57  LEU57       0.2616
     73  O         40.5420   52.4630   40.7990 O.2    57  LEU57      -0.2715
     74  CB        42.7470   53.6000   42.4610 C.3    57  LEU57       0.0311
     75  CG        44.2230   53.5690   42.8720 C.3    57  LEU57       0.0022
     76  CD1       44.3450   53.7330   44.3780 C.3    57  LEU57       0.0001
     77  CD2       44.8680   52.2630   42.4080 C.3    57  LEU57       0.0001
     78  N         40.4340   54.5680   40.0290 N.am   58  GLU58      -0.1977
     79  CA        39.0410   54.4290   39.6180 C.3    58  GLU58       0.1602
     80  C         38.9900   53.5840   38.3460 C.2    58  GLU58       0.2287
     81  O         37.9920   52.9230   38.0680 O.2    58  GLU58      -0.2864
     82  CB        38.4170   55.7980   39.3270 C.3    58  GLU58       0.0415
     83  CG        36.9040   55.7440   39.1370 C.3    58  GLU58       0.1163
     84  CD        36.3380   56.9980   38.4980 C.2    58  GLU58       0.3649
     85  OE1       36.8700   58.0980   38.7540 O.co2  58  GLU58      -0.2457
     86  OE2       35.3450   56.8830   37.7470 O.co2  58  GLU58      -0.2457
     87  N         44.6990   51.7350   51.0120 N.3    83  ASN83      -0.1225
     88  CA        44.5090   52.9620   51.7680 C.3    83  ASN83       0.1785
     89  C         43.7570   54.0690   51.0350 C.2    83  ASN83       0.2597
     90  O         43.0310   54.8370   51.6570 O.2    83  ASN83      -0.2718
     91  CB        45.8840   53.4660   52.2290 C.3    83  ASN83       0.1169
     92  CG        45.8500   54.8910   52.7370 C.2    83  ASN83       0.2627
     93  OD1       46.1260   55.8420   51.9890 O.2    83  ASN83      -0.2716
     94  ND2       45.5080   55.0550   54.0050 N.am   83  ASN83      -0.0877
     95  N         43.9190   54.1520   49.7190 N.am   84  ALA84      -0.1966
     96  CA        43.2440   55.1990   48.9560 C.3    84  ALA84       0.1728
     97  C         41.7270   55.1520   49.1150 C.2    84  ALA84       0.2616
     98  O         41.1250   54.0780   49.1600 O.2    84  ALA84      -0.2715
     99  CB        43.6140   55.0880   47.4780 C.3    84  ALA84       0.0334
    100  N         41.1130   56.3270   49.2090 N.am   85  ALA85      -0.1963
    101  CA        39.6640   56.4270   49.3340 C.3    85  ALA85       0.1728
    102  C         39.2090   57.8590   49.0960 C.2    85  ALA85       0.2616
    103  O         39.9980   58.8010   49.2030 O.2    85  ALA85      -0.2715
    104  CB        39.2170   55.9670   50.7120 C.3    85  ALA85       0.0334
    105  N         37.9330   58.0070   48.7570 N.am   86  ILE86      -0.1977
    106  CA        37.3390   59.3170   48.5240 C.3    86  ILE86       0.1596
    107  C         35.9560   59.3370   49.1590 C.2    86  ILE86       0.2287
    108  O         35.4790   58.3220   49.6680 O.2    86  ILE86      -0.2864
    109  CB        37.1860   59.6180   47.0140 C.3    86  ILE86       0.0276
    110  CG1       36.3570   58.5180   46.3440 C.3    86  ILE86       0.0022
    111  CG2       38.5600   59.7370   46.3660 C.3    86  ILE86       0.0022
    112  CD1       35.9750   58.8250   44.8970 C.3    86  ILE86       0.0001
    113  N         36.1290   53.4160   43.7930 N.3   106  VAL106     -0.1245
    114  CA        37.4230   53.6700   44.4180 C.3   106  VAL106      0.1561
    115  C         37.5850   53.0500   45.8120 C.2   106  VAL106      0.2260
    116  O         38.6330   52.4880   46.1240 O.2   106  VAL106     -0.2867
    117  CB        37.7030   55.2000   44.5280 C.3   106  VAL106      0.0252
    118  CG1       39.0000   55.4490   45.3030 C.3   106  VAL106      0.0019
    119  CG2       37.8130   55.8130   43.1400 C.3   106  VAL106      0.0019
    120  N         42.3310   49.7440   54.8470 N.3   133  VAL133     -0.1231
    121  CA        42.0960   50.8640   55.7350 C.3   133  VAL133      0.1692
    122  C         40.6220   51.2180   55.6070 C.2   133  VAL133      0.2592
    123  O         40.1930   51.8320   54.6240 O.2   133  VAL133     -0.2718
    124  CB        42.9510   52.0940   55.3680 C.3   133  VAL133      0.0266
    125  CG1       42.6650   53.2270   56.3540 C.3   133  VAL133      0.0020
    126  CG2       44.4290   51.7320   55.4120 C.3   133  VAL133      0.0020
    127  N         39.8370   50.7860   56.5850 N.am  134  ALA134     -0.1966
    128  CA        38.4160   51.0800   56.5840 C.3   134  ALA134      0.1728
    129  C         38.2550   52.3500   57.4000 C.2   134  ALA134      0.2617
    130  O         38.9850   53.3200   57.1890 O.2   134  ALA134     -0.2715
    131  CB        37.6360   49.9340   57.2120 C.3   134  ALA134      0.0334
    132  N         37.3190   52.3370   58.3410 N.am  135  SER135     -0.1936
    133  CA        37.0630   53.4930   59.1900 C.3   135  SER135      0.2055
    134  C         36.0100   53.1250   60.2160 C.2   135  SER135      0.2642
    135  O         35.2930   52.1380   60.0490 O.2   135  SER135     -0.2714
    136  CB        36.5300   54.6600   58.3530 C.3   135  SER135      0.2130
    137  OG        36.0840   55.7180   59.1880 O.3   135  SER135     -0.2179
    138  N         35.9200   53.9020   61.2880 N.am  136  VAL136     -0.1977
    139  CA        34.8710   53.6430   62.2560 C.3   136  VAL136      0.1596
    140  C         33.5790   53.9290   61.4880 C.2   136  VAL136      0.2287
    141  O         32.5130   53.4430   61.8470 O.2   136  VAL136     -0.2864
    142  CB        34.9570   54.5820   63.4840 C.3   136  VAL136      0.0276
    143  CG1       36.1480   54.1930   64.3480 C.3   136  VAL136      0.0022
    144  CG2       35.0680   56.0290   63.0370 C.3   136  VAL136      0.0022
    145  N         30.3020   57.3060   51.4160 N.3   148  TYR148     -0.1241
    146  CA        31.4400   56.8940   52.2350 C.3   148  TYR148      0.1605
    147  C         31.0230   55.8150   53.2330 C.2   148  TYR148      0.2264
    148  O         31.7150   54.8080   53.3910 O.2   148  TYR148     -0.2867
    149  CB        32.0040   58.1050   52.9900 C.3   148  TYR148      0.0534
    150  CG        33.3130   57.8490   53.7110 C.ar  148  TYR148     -0.0201
    151  CD1       34.5240   57.7910   53.0150 C.ar  148  TYR148     -0.0009
    152  CD2       33.3440   57.6950   55.0930 C.ar  148  TYR148     -0.0009
    153  CE1       35.7370   57.5930   53.6900 C.ar  148  TYR148      0.0417
    154  CE2       34.5430   57.4950   55.7730 C.ar  148  TYR148      0.0417
    155  CZ        35.7300   57.4480   55.0710 C.ar  148  TYR148      0.1957
    156  OH        36.9020   57.2670   55.7690 O.3   148  TYR148     -0.2866
    157  N         32.5260   52.0240   52.8860 N.3   152  LYS152     -0.1245
    158  CA        33.3880   51.5330   53.9590 C.3   152  LYS152      0.1561
    159  C         32.7230   50.3540   54.6670 C.2   152  LYS152      0.2260
    160  O         33.4040   49.4590   55.1650 O.2   152  LYS152     -0.2867
    161  CB        33.7080   52.6470   54.9600 C.3   152  LYS152      0.0271
    162  CG        34.6660   53.7150   54.4260 C.3   152  LYS152      0.0035
    163  CD        36.0500   53.1420   54.1040 C.3   152  LYS152      0.0206
    164  CE        37.0430   54.2580   53.7850 C.3   152  LYS152      0.1093
    165  NZ        38.3990   53.7450   53.4190 N.3   152  LYS152     -0.1314
    166  N         40.1670   53.4240   61.6780 N.3   178  PRO178     -0.2102
    167  CA        40.5740   54.6350   62.3920 C.3   178  PRO178      0.1504
    168  C         39.4480   55.5730   62.7860 C.2   178  PRO178      0.2576
    169  O         38.4070   55.6350   62.1260 O.2   178  PRO178     -0.2718
    170  CB        41.5350   55.3170   61.4130 C.3   178  PRO178      0.0282
    171  CG        42.0150   54.1920   60.5310 C.3   178  PRO178      0.0208
    172  CD        40.7520   53.3950   60.3290 C.3   178  PRO178      0.0893
    173  N         39.6820   56.2880   63.8840 N.am  179  GLY179     -0.1943
    174  CA        38.7590   57.3010   64.3540 C.3   179  GLY179      0.2014
    175  C         39.3310   58.5420   63.6920 C.2   179  GLY179      0.2639
    176  O         40.0110   58.4060   62.6800 O.2   179  GLY179     -0.2714
    177  N         39.1020   59.7340   64.2410 N.am  180  ALA180     -0.1963
    178  CA        39.6300   60.9530   63.6190 C.3   180  ALA180      0.1728
    179  C         41.1490   61.0660   63.7470 C.2   180  ALA180      0.2616
    180  O         41.6830   61.1410   64.8500 O.2   180  ALA180     -0.2715
    181  CB        38.9530   62.1920   64.2300 C.3   180  ALA180      0.0334
    182  N         41.8330   61.0830   62.6050 N.am  181  ILE181     -0.1977
    183  CA        43.2900   61.1740   62.5590 C.3   181  ILE181      0.1596
    184  C         43.6960   62.5090   61.9290 C.2   181  ILE181      0.2287
    185  O         43.1380   62.9120   60.9130 O.2   181  ILE181     -0.2864
    186  CB        43.8800   60.0220   61.7160 C.3   181  ILE181      0.0276
    187  CG1       43.2940   58.6860   62.1850 C.3   181  ILE181      0.0022
    188  CG2       45.4000   60.0230   61.8080 C.3   181  ILE181      0.0022
    189  CD1       43.4850   58.3920   63.6700 C.3   181  ILE181      0.0001
    190  N         45.2860   64.1380   59.6610 N.3   183  THR183     -0.1218
    191  CA        45.9240   64.0900   58.3490 C.3   183  THR183      0.1862
    192  C         45.5860   65.3990   57.6440 C.2   183  THR183      0.2287
    193  O         44.7740   66.1740   58.1400 O.2   183  THR183     -0.2866
    194  CB        45.3600   62.9510   57.4960 C.3   183  THR183      0.1770
    195  OG1       43.9500   63.1490   57.3240 O.3   183  THR183     -0.2211
    196  CG2       45.5950   61.6040   58.1690 C.3   183  THR183      0.0375
    197  N         43.8090   65.8840   55.0840 N.3   185  ALA185     -0.1231
    198  CA        42.3830   65.8700   54.7770 C.3   185  ALA185      0.1694
    199  C         41.5190   66.2910   55.9620 C.2   185  ALA185      0.2591
    200  O         40.5720   67.0610   55.8020 O.2   185  ALA185     -0.2718
    201  CB        41.9680   64.4830   54.3000 C.3   185  ALA185      0.0304
    202  N         41.8380   65.7900   57.1500 N.am  186  VAL186     -0.1980
    203  CA        41.0570   66.1410   58.3310 C.3   186  VAL186      0.1595
    204  C         41.3240   67.5690   58.7910 C.2   186  VAL186      0.2287
    205  O         40.4050   68.2680   59.2120 O.2   186  VAL186     -0.2864
    206  CB        41.3280   65.1590   59.4930 C.3   186  VAL186      0.0276
    207  CG1       40.8630   65.7520   60.8200 C.3   186  VAL186      0.0022
    208  CG2       40.5800   63.8620   59.2340 C.3   186  VAL186      0.0022
@<TRIPOS>BOND
     1    69    67   ar
     2    66    67    1
     3    66    63    1
     4    86    84   ar
     5    81    80    2
     6    67    68   ar
     7    80    79    1
     8    65    64    2
     9    84    85   ar
    10    84    83    1
    11    62    63    1
    12    62    57   am
    13    63    64    1
    14    56    57    1
    15    56    55    1
    16    56    59    1
    17    83    82    1
    18    64    70   am
    19    61    59    1
    20    82    79    1
    21    57    58    2
    22    43    41    1
    23    60    59    1
    24    79    78    1
    25    78    72   am
    26    70    71    1
    27    72    73    2
    28    72    71    1
    29    42    41    1
    30    71    74    1
    31    41    40    1
    32    39    38    2
    33    31    30    2
    34    37    38    1
    35    37    40    1
    36    37    36    1
    37    38    44   am
    38    77    75    1
    39    74    75    1
    40    30    36   am
    41    30    29    1
    42    75    76    1
    43   119   117    1
    44    46    45    1
    45    46    47    2
    46    44    45    1
    47    45    48    1
    48    28    29    1
    49   113   114    1
    50    29    32    1
    51   114   117    1
    52   114   115    1
    53   117   118    1
    54   112   110    1
    55    48    49    1
    56    32    33    1
    57    34    33   ar
    58    49    50    1
    59   115   116    2
    60    33    35   ar
    61   110   109    1
    62   111   109    1
    63    50    51    1
    64   109   106    1
    65    53    52    1
    66    51    52    2
    67    52    54    1
    68    99    96    1
    69     1     2    1
    70     2     3    1
    71   106   105    1
    72   106   107    1
    73   105   102   am
    74    96    97    1
    75    96    95    1
    76     3     4    2
    77   102   103    2
    78   102   101    1
    79    97    98    2
    80    97   100   am
    81   107   108    2
    82   100   101    1
    83   101   104    1
    84    95    89   am
    85     5     6    1
    86    14    13    1
    87    13    15    1
    88    13    12    2
    89    87    88    1
    90    11    12    1
    91    11    10    1
    92    89    90    2
    93    89    88    1
    94    10     9    1
    95   145   146    1
    96     9     6    1
    97    88    91    1
    98     6     7    1
    99    93    92    2
   100    91    92    1
   101   146   149    1
   102   146   147    1
   103    92    94   am
   104   157   158    1
   105     8     7    2
   106   149   150    1
   107   151   153   ar
   108   151   150   ar
   109     7    16   am
   110   147   148    2
   111   165   164    1
   112   153   155   ar
   113   150   152   ar
   114   164   163    1
   115   158   159    1
   116   158   161    1
   117   163   162    1
   118    16    17    1
   119   201   198    1
   120   162   161    1
   121   123   122    2
   122   159   160    2
   123   198   197    1
   124   198   199    1
   125   120   121    1
   126   155   156    1
   127   155   154   ar
   128   152   154   ar
   129    17    18    1
   130   124   126    1
   131   124   121    1
   132   124   125    1
   133    22    23    2
   134    22    21    1
   135   122   121    1
   136   122   127   am
   137    18    19    2
   138    18    20   am
   139   200   199    2
   140   199   202   am
   141    20    21    1
   142    21    24    1
   143   128   127    1
   144   128   131    1
   145   128   129    1
   146    24    26    1
   147    24    25    1
   148   202   203    1
   149   130   129    2
   150   195   194    1
   151   129   132   am
   152   194   196    1
   153   194   191    1
   154   192   193    2
   155   192   191    1
   156    25    27    1
   157   203   204    1
   158   203   206    1
   159   132   133    1
   160   191   190    1
   161   136   137    1
   162   136   133    1
   163   204   205    2
   164   133   134    1
   165   208   206    1
   166   206   207    1
   167   135   134    2
   168   134   138   am
   169   172   171    1
   170   172   166    1
   171   171   170    1
   172   185   184    2
   173   138   139    1
   174   170   167    1
   175   140   141    2
   176   140   139    1
   177   166   167    1
   178   186   188    1
   179   186   187    1
   180   186   183    1
   181   184   183    1
   182   169   168    2
   183   187   189    1
   184   139   142    1
   185   167   168    1
   186   183   182    1
   187   182   179   am
   188   176   175    2
   189   168   173   am
   190   144   142    1
   191   142   143    1
   192   178   179    1
   193   178   181    1
   194   178   177    1
   195   175   177   am
   196   175   174    1
   197   179   180    2
   198   173   174    1
