@<TRIPOS>MOLECULE
tmp/2d20A01.pdb
 103 102 0 0 0
SMALL
GASTEIGER

@<TRIPOS>ATOM
      1  N         40.6440   26.9510   41.2530 N.3    85  TRP85      -0.1241
      2  CA        41.0430   28.2210   41.8490 C.3    85  TRP85       0.1605
      3  C         42.4420   28.1270   42.4570 C.2    85  TRP85       0.2264
      4  O         43.0150   27.0410   42.5430 O.2    85  TRP85      -0.2867
      5  CB        40.0090   28.6780   42.8910 C.3    85  TRP85       0.0550
      6  CG        39.8480   27.7910   44.0880 C.ar   85  TRP85       0.0003
      7  CD1       39.9220   26.4270   44.1210 C.ar   85  TRP85       0.0946
      8  CD2       39.5240   28.2070   45.4210 C.ar   85  TRP85       0.0152
      9  NE1       39.6640   25.9690   45.3920 N.ar   85  TRP85      -0.2442
     10  CE2       39.4160   27.0400   46.2100 C.ar   85  TRP85       0.0810
     11  CE3       39.3120   29.4550   46.0260 C.ar   85  TRP85       0.0012
     12  CZ2       39.1060   27.0830   47.5750 C.ar   85  TRP85       0.0191
     13  CZ3       39.0030   29.4970   47.3860 C.ar   85  TRP85       0.0001
     14  CH2       38.9030   28.3160   48.1430 C.ar   85  TRP85       0.0015
     15  N         43.4420   29.0100   45.6680 N.3    87  SER87      -0.1217
     16  CA        43.5010   28.6350   47.0760 C.3    87  SER87       0.1889
     17  C         43.2850   27.1570   47.3680 C.2    87  SER87       0.2288
     18  O         42.6050   26.4510   46.6240 O.2    87  SER87      -0.2866
     19  CB        42.4870   29.4560   47.8740 C.3    87  SER87       0.2089
     20  OG        42.5810   29.1650   49.2580 O.3    87  SER87      -0.2183
     21  N         37.7070   33.2420   43.1930 N.3   128  HIS128     -0.1241
     22  CA        38.8120   34.1310   43.5560 C.3   128  HIS128      0.1621
     23  C         39.8080   34.3860   42.4260 C.2   128  HIS128      0.2264
     24  O         41.0140   34.2710   42.6330 O.2   128  HIS128     -0.2867
     25  CB        39.5840   33.5460   44.7420 C.3   128  HIS128      0.0745
     26  CG        38.7340   33.2230   45.9290 C.ar  128  HIS128      0.0817
     27  ND1       37.6170   32.4210   45.8500 N.ar  128  HIS128     -0.2268
     28  CD2       38.8670   33.5540   47.2350 C.ar  128  HIS128      0.1154
     29  CE1       37.0990   32.2700   47.0560 C.ar  128  HIS128      0.1986
     30  NE2       37.8380   32.9480   47.9150 N.ar  128  HIS128     -0.2212
     31  N         34.5610   37.1610   46.1510 N.3   172  TYR172     -0.1227
     32  CA        34.1910   38.0380   47.2570 C.3   172  TYR172      0.1736
     33  C         34.6080   39.4690   46.9330 C.2   172  TYR172      0.2595
     34  O         35.3930   39.7000   46.0150 O.2   172  TYR172     -0.2718
     35  CB        34.8640   37.5900   48.5570 C.3   172  TYR172      0.0548
     36  CG        36.3710   37.6640   48.5170 C.ar  172  TYR172     -0.0200
     37  CD1       37.1210   36.6610   47.9090 C.ar  172  TYR172     -0.0009
     38  CD2       37.0470   38.7550   49.0630 C.ar  172  TYR172     -0.0009
     39  CE1       38.5150   36.7420   47.8460 C.ar  172  TYR172      0.0417
     40  CE2       38.4370   38.8470   49.0040 C.ar  172  TYR172      0.0417
     41  CZ        39.1630   37.8360   48.3940 C.ar  172  TYR172      0.1957
     42  OH        40.5350   37.9190   48.3350 O.3   172  TYR172     -0.2866
     43  N         34.0860   40.4210   47.7010 N.am  173  ASN173     -0.1974
     44  CA        34.3690   41.8380   47.4910 C.3   173  ASN173      0.1688
     45  C         33.9490   42.3010   46.1010 C.2   173  ASN173      0.2292
     46  O         34.5790   43.1790   45.5070 O.2   173  ASN173     -0.2864
     47  CB        35.8520   42.1480   47.7220 C.3   173  ASN173      0.1181
     48  CG        36.2150   42.1820   49.1960 C.2   173  ASN173      0.2629
     49  OD1       35.3410   42.1280   50.0620 O.2   173  ASN173     -0.2716
     50  ND2       37.5070   42.2800   49.4870 N.am  173  ASN173     -0.0877
     51  N         29.9840   35.8560   47.2740 N.3   205  GLN205     -0.1245
     52  CA        30.2440   35.2890   48.5920 C.3   205  GLN205      0.1566
     53  C         29.5500   36.0300   49.7220 C.2   205  GLN205      0.2260
     54  O         29.0500   35.4110   50.6660 O.2   205  GLN205     -0.2867
     55  CB        31.7470   35.2080   48.8370 C.3   205  GLN205      0.0367
     56  CG        32.4110   34.2540   47.8690 C.3   205  GLN205      0.0905
     57  CD        33.8580   33.9660   48.1990 C.2   205  GLN205      0.2608
     58  OE1       34.5390   33.2710   47.4450 O.2   205  GLN205     -0.2717
     59  NE2       34.3370   34.4910   49.3250 N.am  205  GLN205     -0.0878
     60  N         30.7040   38.1380   52.2010 N.3   207  HIS207     -0.1241
     61  CA        31.3240   38.0750   53.5240 C.3   207  HIS207      0.1621
     62  C         31.4350   39.5330   53.9650 C.2   207  HIS207      0.2264
     63  O         32.4350   40.1990   53.6960 O.2   207  HIS207     -0.2867
     64  CB        32.7140   37.4340   53.4470 C.3   207  HIS207      0.0745
     65  CG        32.6850   35.9560   53.2010 C.ar  207  HIS207      0.0817
     66  ND1       32.0730   35.0700   54.0640 N.ar  207  HIS207     -0.2268
     67  CD2       33.1970   35.2070   52.1950 C.ar  207  HIS207      0.1154
     68  CE1       32.2070   33.8410   53.5980 C.ar  207  HIS207      0.1986
     69  NE2       32.8850   33.8960   52.4650 N.ar  207  HIS207     -0.2212
     70  N         28.0880   32.6420   50.2080 N.3   236  GLU236     -0.1245
     71  CA        28.7610   32.3890   51.4820 C.3   236  GLU236      0.1567
     72  C         28.4720   33.4830   52.4930 C.2   236  GLU236      0.2260
     73  O         29.3540   33.9330   53.2240 O.2   236  GLU236     -0.2867
     74  CB        30.2700   32.2840   51.2300 C.3   236  GLU236      0.0388
     75  CG        30.6120   31.2440   50.1640 C.3   236  GLU236      0.1160
     76  CD        32.0870   31.1670   49.8420 C.2   236  GLU236      0.3649
     77  OE1       32.9080   31.5810   50.6850 O.co2 236  GLU236     -0.2457
     78  OE2       32.4240   30.6740   48.7470 O.co2 236  GLU236     -0.2457
     79  N         33.9920   30.0240   60.1440 N.3   274  TRP274     -0.1227
     80  CA        35.4160   30.1740   59.8800 C.3   274  TRP274      0.1737
     81  C         35.8430   31.5020   60.5040 C.2   274  TRP274      0.2595
     82  O         37.0330   31.7890   60.6410 O.2   274  TRP274     -0.2718
     83  CB        35.6850   30.1730   58.3680 C.3   274  TRP274      0.0564
     84  CG        35.1130   31.3520   57.6260 C.ar  274  TRP274      0.0003
     85  CD1       33.8420   31.8500   57.7160 C.ar  274  TRP274      0.0946
     86  CD2       35.7940   32.1670   56.6650 C.ar  274  TRP274      0.0152
     87  NE1       33.6910   32.9250   56.8700 N.ar  274  TRP274     -0.2442
     88  CE2       34.8740   33.1410   56.2130 C.ar  274  TRP274      0.0810
     89  CE3       37.0940   32.1690   56.1410 C.ar  274  TRP274      0.0012
     90  CZ2       35.2140   34.1080   55.2600 C.ar  274  TRP274      0.0191
     91  CZ3       37.4330   33.1320   55.1920 C.ar  274  TRP274      0.0001
     92  CH2       36.4940   34.0880   54.7620 C.ar  274  TRP274      0.0015
     93  N         34.8560   32.3070   60.8820 N.am  275  ARG275     -0.1980
     94  CA        35.1070   33.5980   61.5150 C.3   275  ARG275      0.1597
     95  C         34.2140   33.7520   62.7410 C.2   275  ARG275      0.2287
     96  O         33.4740   34.7290   62.8770 O.2   275  ARG275     -0.2864
     97  CB        34.8540   34.7390   60.5240 C.3   275  ARG275      0.0334
     98  CG        35.9320   34.8570   59.4490 C.3   275  ARG275      0.0492
     99  CD        35.6930   36.0450   58.5280 C.3   275  ARG275      0.2205
    100  NE        36.8010   36.2370   57.5910 N.pl3 275  ARG275     -0.0865
    101  CZ        36.7710   37.0690   56.5530 C.cat 275  ARG275      0.5346
    102  NH1       35.6840   37.7910   56.3080 N.pl3 275  ARG275      0.1354
    103  NH2       37.8300   37.1810   55.7600 N.pl3 275  ARG275      0.1354
@<TRIPOS>BOND
     1     1     2    1
     2     2     3    1
     3     2     5    1
     4    23    24    2
     5    23    22    1
     6     3     4    2
     7     5     6    1
     8    21    22    1
     9    22    25    1
    10     6     7   ar
    11     6     8   ar
    12     7     9   ar
    13    25    26    1
    14     9    10   ar
    15     8    11   ar
    16     8    10   ar
    17    46    45    2
    18    15    16    1
    19    27    26   ar
    20    27    29   ar
    21    26    28   ar
    22    34    33    2
    23    11    13   ar
    24    45    44    1
    25    31    32    1
    26    10    12   ar
    27    18    17    2
    28    33    32    1
    29    33    43   am
    30    29    30   ar
    31    16    17    1
    32    16    19    1
    33    28    30   ar
    34    32    35    1
    35    51    52    1
    36    13    14   ar
    37    58    57    2
    38    44    43    1
    39    44    47    1
    40    12    14   ar
    41    47    48    1
    42    39    37   ar
    43    39    41   ar
    44    56    57    1
    45    56    55    1
    46    19    20    1
    47    37    36   ar
    48    57    59   am
    49    42    41    1
    50    41    40   ar
    51    36    35    1
    52    36    38   ar
    53    52    55    1
    54    52    53    1
    55    78    76   ar
    56    40    38   ar
    57    48    50   am
    58    48    49    2
    59    53    54    2
    60    76    75    1
    61    76    77   ar
    62    75    74    1
    63    70    71    1
    64    74    71    1
    65    71    72    1
    66    67    69   ar
    67    67    65   ar
    68    60    61    1
    69    69    68   ar
    70    72    73    2
    71    65    64    1
    72    65    66   ar
    73    64    61    1
    74    61    62    1
    75    68    66   ar
    76    63    62    2
    77    92    91   ar
    78    92    90   ar
    79    91    89   ar
    80    90    88   ar
    81   103   101    1
    82    89    86   ar
    83    88    86   ar
    84    88    87   ar
    85   102   101    1
    86   101   100    2
    87    86    84   ar
    88    87    85   ar
    89   100    99    1
    90    84    85   ar
    91    84    83    1
    92    83    80    1
    93    99    98    1
    94    98    97    1
    95    80    79    1
    96    80    81    1
    97    81    82    2
    98    81    93   am
    99    97    94    1
   100    93    94    1
   101    94    95    1
   102    95    96    2
