@<TRIPOS>MOLECULE
tmp/2d23A00.pdb
 148 146 0 0 0
SMALL
GASTEIGER

@<TRIPOS>ATOM
      1  N         31.9780   22.2930   52.2020 N.3    44  GLU44      -0.1231
      2  CA        32.8910   23.3510   52.6030 C.3    44  GLU44       0.1699
      3  C         34.3090   23.1450   52.0620 C.2    44  GLU44       0.2592
      4  O         34.9870   24.1120   51.7310 O.2    44  GLU44      -0.2718
      5  CB        32.9090   23.5010   54.1350 C.3    44  GLU44       0.0402
      6  CG        33.7020   24.7230   54.6180 C.3    44  GLU44       0.1161
      7  CD        33.5500   24.9920   56.1110 C.2    44  GLU44       0.3649
      8  OE1       33.1820   24.0630   56.8590 O.co2  44  GLU44      -0.2457
      9  OE2       33.8150   26.1370   56.5390 O.co2  44  GLU44      -0.2457
     10  N         34.7490   21.8940   51.9500 N.am   45  ASN45      -0.1974
     11  CA        36.0950   21.6120   51.4400 C.3    45  ASN45       0.1688
     12  C         36.1960   20.3020   50.6600 C.2    45  ASN45       0.2292
     13  O         37.0860   20.1400   49.8270 O.2    45  ASN45      -0.2864
     14  CB        37.0990   21.5470   52.5970 C.3    45  ASN45       0.1181
     15  CG        37.2240   22.8530   53.3420 C.2    45  ASN45       0.2629
     16  OD1       37.7430   23.8380   52.8150 O.2    45  ASN45      -0.2716
     17  ND2       36.7450   22.8710   54.5810 N.am   45  ASN45      -0.0877
     18  N         36.8760   20.2590   46.7770 N.3    48  LYS48      -0.1245
     19  CA        37.9410   21.0930   46.2520 C.3    48  LYS48       0.1561
     20  C         38.9700   20.2010   45.5570 C.2    48  LYS48       0.2260
     21  O         38.9390   18.9780   45.7000 O.2    48  LYS48      -0.2867
     22  CB        38.5640   21.9140   47.3820 C.3    48  LYS48       0.0271
     23  CG        37.6170   23.0010   47.8840 C.3    48  LYS48       0.0035
     24  CD        38.1350   23.7370   49.1060 C.3    48  LYS48       0.0206
     25  CE        37.1560   24.8400   49.5030 C.3    48  LYS48       0.1093
     26  NZ        37.5750   25.5740   50.7270 N.3    48  LYS48      -0.1314
     27  N         31.7310   22.7320   44.5130 N.3    81  HIS81      -0.1241
     28  CA        32.7000   23.7670   44.8750 C.3    81  HIS81       0.1621
     29  C         34.0540   23.1230   45.2160 C.2    81  HIS81       0.2264
     30  O         34.1230   22.3640   46.1780 O.2    81  HIS81      -0.2867
     31  CB        32.1320   24.4840   46.1070 C.3    81  HIS81       0.0745
     32  CG        32.9880   25.5880   46.6450 C.ar   81  HIS81       0.0817
     33  ND1       33.0530   26.8340   46.0590 N.ar   81  HIS81      -0.2268
     34  CD2       33.7620   25.6510   47.7540 C.ar   81  HIS81       0.1154
     35  CE1       33.8280   27.6190   46.7870 C.ar   81  HIS81       0.1986
     36  NE2       34.2700   26.9260   47.8210 N.ar   81  HIS81      -0.2212
     37  N         40.8000   26.6670   40.4890 N.3    85  TRP85      -0.1241
     38  CA        41.2310   27.8940   41.1470 C.3    85  TRP85       0.1605
     39  C         42.6270   27.7160   41.7370 C.2    85  TRP85       0.2264
     40  O         43.1140   26.5950   41.8740 O.2    85  TRP85      -0.2867
     41  CB        40.2230   28.3160   42.2250 C.3    85  TRP85       0.0550
     42  CG        40.0860   27.3890   43.3910 C.ar   85  TRP85       0.0003
     43  CD1       40.1200   26.0220   43.3700 C.ar   85  TRP85       0.0946
     44  CD2       39.8200   27.7620   44.7510 C.ar   85  TRP85       0.0152
     45  NE1       39.8900   25.5220   44.6320 N.ar   85  TRP85      -0.2442
     46  CE2       39.7020   26.5680   45.4980 C.ar   85  TRP85       0.0810
     47  CE3       39.6670   28.9900   45.4090 C.ar   85  TRP85       0.0012
     48  CZ2       39.4390   26.5650   46.8750 C.ar   85  TRP85       0.0191
     49  CZ3       39.4040   28.9870   46.7820 C.ar   85  TRP85       0.0001
     50  CH2       39.2940   27.7800   47.4970 C.ar   85  TRP85       0.0015
     51  N         44.1670   26.0230   47.6000 N.3    88  GLN88      -0.1245
     52  CA        44.0270   24.6410   48.0370 C.3    88  GLN88       0.1566
     53  C         44.2780   23.5850   46.9640 C.2    88  GLN88       0.2260
     54  O         43.5700   22.5780   46.8950 O.2    88  GLN88      -0.2867
     55  CB        42.6450   24.4370   48.6650 C.3    88  GLN88       0.0367
     56  CG        42.5080   25.0920   50.0330 C.3    88  GLN88       0.0905
     57  CD        41.0980   25.0200   50.5870 C.2    88  GLN88       0.2608
     58  OE1       40.2150   25.7650   50.1660 O.2    88  GLN88      -0.2717
     59  NE2       40.8800   24.1140   51.5340 N.am   88  GLN88      -0.0878
     60  N         37.8380   33.0010   42.4310 N.3   128  HIS128     -0.1241
     61  CA        38.9910   33.8010   42.8480 C.3   128  HIS128      0.1621
     62  C         39.9370   34.1310   41.7000 C.2   128  HIS128      0.2264
     63  O         41.1530   34.1720   41.8910 O.2   128  HIS128     -0.2867
     64  CB        39.7800   33.0550   43.9240 C.3   128  HIS128      0.0745
     65  CG        39.0170   32.8200   45.1880 C.ar  128  HIS128      0.0817
     66  ND1       37.7540   32.2720   45.2040 N.ar  128  HIS128     -0.2268
     67  CD2       39.3540   33.0300   46.4820 C.ar  128  HIS128      0.1154
     68  CE1       37.3450   32.1520   46.4550 C.ar  128  HIS128      0.1986
     69  NE2       38.2970   32.6050   47.2500 N.ar  128  HIS128     -0.2212
     70  N         34.7440   36.8660   45.4540 N.3   172  TYR172     -0.1241
     71  CA        34.4040   37.7020   46.6010 C.3   172  TYR172      0.1605
     72  C         34.7930   39.1450   46.3090 C.2   172  TYR172      0.2264
     73  O         35.5790   39.4160   45.4010 O.2   172  TYR172     -0.2867
     74  CB        35.1340   37.2360   47.8620 C.3   172  TYR172      0.0534
     75  CG        36.6370   37.3470   47.7690 C.ar  172  TYR172     -0.0201
     76  CD1       37.3820   36.3820   47.0960 C.ar  172  TYR172     -0.0009
     77  CD2       37.3140   38.4290   48.3350 C.ar  172  TYR172     -0.0009
     78  CE1       38.7650   36.4860   46.9840 C.ar  172  TYR172      0.0417
     79  CE2       38.7030   38.5460   48.2290 C.ar  172  TYR172      0.0417
     80  CZ        39.4190   37.5680   47.5510 C.ar  172  TYR172      0.1957
     81  OH        40.7880   37.6620   47.4390 O.3   172  TYR172     -0.2866
     82  N         30.1310   35.5430   46.6430 N.3   205  GLN205     -0.1245
     83  CA        30.4090   34.9500   47.9460 C.3   205  GLN205      0.1566
     84  C         29.7730   35.7020   49.1050 C.2   205  GLN205      0.2260
     85  O         29.2880   35.0880   50.0550 O.2   205  GLN205     -0.2867
     86  CB        31.9220   34.8010   48.1270 C.3   205  GLN205      0.0367
     87  CG        32.5070   33.8350   47.0990 C.3   205  GLN205      0.0905
     88  CD        33.9980   33.6090   47.2440 C.2   205  GLN205      0.2608
     89  OE1       34.6210   32.9790   46.3900 O.2   205  GLN205     -0.2717
     90  NE2       34.5750   34.1110   48.3250 N.am  205  GLN205     -0.0878
     91  N         31.0300   37.7850   51.5970 N.3   207  HIS207     -0.1241
     92  CA        31.6520   37.7180   52.9140 C.3   207  HIS207      0.1621
     93  C         31.7840   39.1650   53.3860 C.2   207  HIS207      0.2264
     94  O         32.8110   39.8100   53.1640 O.2   207  HIS207     -0.2867
     95  CB        33.0280   37.0550   52.8220 C.3   207  HIS207      0.0745
     96  CG        32.9660   35.5850   52.5480 C.ar  207  HIS207      0.0817
     97  ND1       32.4300   34.6850   53.4450 N.ar  207  HIS207     -0.2268
     98  CD2       33.3590   34.8600   51.4750 C.ar  207  HIS207      0.1154
     99  CE1       32.4970   33.4670   52.9360 C.ar  207  HIS207      0.1986
    100  NE2       33.0570   33.5450   51.7420 N.ar  207  HIS207     -0.2212
    101  N         28.2830   32.3080   49.6030 N.3   236  GLU236     -0.1245
    102  CA        28.9620   32.0410   50.8740 C.3   236  GLU236      0.1567
    103  C         28.7110   33.1500   51.8860 C.2   236  GLU236      0.2260
    104  O         29.6180   33.5950   52.5950 O.2   236  GLU236     -0.2867
    105  CB        30.4660   31.9090   50.6160 C.3   236  GLU236      0.0388
    106  CG        30.7970   31.0230   49.4200 C.3   236  GLU236      0.1160
    107  CD        32.2890   30.8930   49.1660 C.2   236  GLU236      0.3649
    108  OE1       33.0790   31.5320   49.8870 O.co2 236  GLU236     -0.2457
    109  OE2       32.6670   30.1540   48.2360 O.co2 236  GLU236     -0.2457
    110  N         27.5700   30.6670   54.6940 N.3   266  TRP266     -0.1241
    111  CA        28.7560   29.8280   54.8270 C.3   266  TRP266      0.1605
    112  C         28.9200   29.1160   56.1660 C.2   266  TRP266      0.2264
    113  O         29.8700   29.3780   56.9050 O.2   266  TRP266     -0.2867
    114  CB        30.0110   30.6530   54.5190 C.3   266  TRP266      0.0550
    115  CG        31.1470   29.8240   53.9850 C.ar  266  TRP266      0.0003
    116  CD1       32.4080   29.7260   54.5030 C.ar  266  TRP266      0.0946
    117  CD2       31.1200   28.9660   52.8340 C.ar  266  TRP266      0.0152
    118  NE1       33.1660   28.8600   53.7490 N.ar  266  TRP266     -0.2442
    119  CE2       32.4020   28.3800   52.7190 C.ar  266  TRP266      0.0810
    120  CE3       30.1370   28.6340   51.8900 C.ar  266  TRP266      0.0012
    121  CZ2       32.7280   27.4780   51.6940 C.ar  266  TRP266      0.0191
    122  CZ3       30.4610   27.7360   50.8690 C.ar  266  TRP266      0.0001
    123  CH2       31.7470   27.1690   50.7820 C.ar  266  TRP266      0.0015
    124  N         34.3020   29.6090   59.5510 N.3   274  TRP274     -0.1227
    125  CA        35.7240   29.7380   59.2820 C.3   274  TRP274      0.1737
    126  C         36.1790   31.0510   59.9150 C.2   274  TRP274      0.2595
    127  O         37.3770   31.3260   60.0180 O.2   274  TRP274     -0.2718
    128  CB        35.9820   29.7430   57.7700 C.3   274  TRP274      0.0564
    129  CG        35.4650   30.9570   57.0470 C.ar  274  TRP274      0.0003
    130  CD1       34.2080   31.4980   57.1310 C.ar  274  TRP274      0.0946
    131  CD2       36.1820   31.7540   56.0960 C.ar  274  TRP274      0.0152
    132  NE1       34.1020   32.5830   56.2870 N.ar  274  TRP274     -0.2442
    133  CE2       35.2980   32.7610   55.6410 C.ar  274  TRP274      0.0810
    134  CE3       37.4870   31.7150   55.5820 C.ar  274  TRP274      0.0012
    135  CZ2       35.6780   33.7200   54.6950 C.ar  274  TRP274      0.0191
    136  CZ3       37.8660   32.6710   54.6400 C.ar  274  TRP274      0.0001
    137  CH2       36.9610   33.6600   54.2070 C.ar  274  TRP274      0.0015
    138  N         35.2040   31.8540   60.3400 N.am  275  ARG275     -0.1980
    139  CA        35.4630   33.1350   60.9910 C.3   275  ARG275      0.1597
    140  C         34.5640   33.3100   62.2190 C.2   275  ARG275      0.2287
    141  O         33.8490   34.3050   62.3430 O.2   275  ARG275     -0.2864
    142  CB        35.2330   34.2870   60.0070 C.3   275  ARG275      0.0334
    143  CG        36.2460   34.3220   58.8680 C.3   275  ARG275      0.0492
    144  CD        36.0210   35.4960   57.9270 C.3   275  ARG275      0.2205
    145  NE        37.0980   35.6040   56.9410 N.pl3 275  ARG275     -0.0865
    146  CZ        37.1310   36.5010   55.9580 C.cat 275  ARG275      0.5346
    147  NH1       36.1430   37.3760   55.8200 N.pl3 275  ARG275      0.1354
    148  NH2       38.1540   36.5250   55.1120 N.pl3 275  ARG275      0.1354
@<TRIPOS>BOND
     1    37    38    1
     2    38    39    1
     3    38    41    1
     4    62    63    2
     5    62    61    1
     6    39    40    2
     7    41    42    1
     8    60    61    1
     9    61    64    1
    10    43    42   ar
    11    43    45   ar
    12    42    44   ar
    13    64    65    1
    14    27    28    1
    15    45    46   ar
    16    44    47   ar
    17    44    46   ar
    18    28    29    1
    19    28    31    1
    20    65    66   ar
    21    65    67   ar
    22    66    68   ar
    23    29    30    2
    24    73    72    2
    25    47    49   ar
    26    70    71    1
    27    46    48   ar
    28    20    21    2
    29    20    19    1
    30    33    32   ar
    31    33    35   ar
    32    31    32    1
    33    19    18    1
    34    19    22    1
    35    72    71    1
    36    89    88    2
    37    68    69   ar
    38    67    69   ar
    39    71    74    1
    40    82    83    1
    41    32    34   ar
    42    49    50   ar
    43    35    36   ar
    44    48    50   ar
    45    54    53    2
    46    53    52    1
    47    78    76   ar
    48    78    80   ar
    49    76    75   ar
    50    87    88    1
    51    87    86    1
    52    88    90   am
    53    22    23    1
    54    81    80    1
    55    80    79   ar
    56    51    52    1
    57    34    36   ar
    58    75    74    1
    59    75    77   ar
    60    23    24    1
    61    83    86    1
    62    83    84    1
    63    52    55    1
    64    79    77   ar
    65   109   107   ar
    66    55    56    1
    67    84    85    2
    68    24    25    1
    69   107   106    1
    70   107   108   ar
    71   106   105    1
    72    25    26    1
    73   101   102    1
    74    13    12    2
    75    56    57    1
    76    58    57    2
    77    57    59   am
    78   105   102    1
    79    12    11    1
    80   123   122   ar
    81   123   121   ar
    82   122   120   ar
    83   102   103    1
    84    11    10    1
    85    11    14    1
    86    98   100   ar
    87    98    96   ar
    88    91    92    1
    89   121   119   ar
    90     4     3    2
    91   100    99   ar
    92   103   104    2
    93   120   117   ar
    94    10     3   am
    95     3     2    1
    96     1     2    1
    97    96    95    1
    98    96    97   ar
    99    14    15    1
   100     2     5    1
   101   119   117   ar
   102   119   118   ar
   103    16    15    2
   104    95    92    1
   105   117   115   ar
   106    92    93    1
   107    99    97   ar
   108    94    93    2
   109    15    17   am
   110   118   116   ar
   111   115   116   ar
   112   115   114    1
   113     5     6    1
   114   137   136   ar
   115   137   135   ar
   116   114   111    1
   117     6     7    1
   118   136   134   ar
   119   110   111    1
   120   135   133   ar
   121   111   112    1
   122   148   146    1
   123   134   131   ar
   124   133   131   ar
   125   133   132   ar
   126   147   146    1
   127   146   145    2
   128   131   129   ar
   129     7     9   ar
   130     7     8   ar
   131   112   113    2
   132   132   130   ar
   133   145   144    1
   134   129   130   ar
   135   129   128    1
   136   128   125    1
   137   144   143    1
   138   143   142    1
   139   125   124    1
   140   125   126    1
   141   126   127    2
   142   126   138   am
   143   142   139    1
   144   138   139    1
   145   139   140    1
   146   140   141    2
