@<TRIPOS>MOLECULE
tmp/2d24A00.pdb
 182 177 0 0 0
SMALL
GASTEIGER

@<TRIPOS>ATOM
      1  N         32.6460   22.7200   51.3580 N.3    44  GLU44      -0.1231
      2  CA        33.5110   23.8180   51.7650 C.3    44  GLU44       0.1699
      3  C         34.9330   23.7150   51.2130 C.2    44  GLU44       0.2592
      4  O         35.5440   24.7330   50.8850 O.2    44  GLU44      -0.2718
      5  CB        33.5410   23.9330   53.2960 C.3    44  GLU44       0.0402
      6  CG        34.2750   25.1710   53.8040 C.3    44  GLU44       0.1161
      7  CD        34.1080   25.3930   55.2990 C.2    44  GLU44       0.3649
      8  OE1       33.6680   24.4550   55.9950 O.co2  44  GLU44      -0.2457
      9  OE2       34.4300   26.5040   55.7760 O.co2  44  GLU44      -0.2457
     10  N         35.4540   22.4940   51.0920 N.am   45  ASN45      -0.1974
     11  CA        36.8120   22.2990   50.5810 C.3    45  ASN45       0.1688
     12  C         36.9930   21.0220   49.7680 C.2    45  ASN45       0.2292
     13  O         37.9200   20.9140   48.9590 O.2    45  ASN45      -0.2864
     14  CB        37.8090   22.2570   51.7460 C.3    45  ASN45       0.1181
     15  CG        37.9600   23.5930   52.4420 C.2    45  ASN45       0.2629
     16  OD1       38.4700   24.5500   51.8630 O.2    45  ASN45      -0.2716
     17  ND2       37.5210   23.6630   53.6960 N.am   45  ASN45      -0.0877
     18  N         37.6540   21.0990   45.8030 N.3    48  LYS48      -0.1245
     19  CA        38.6530   22.0190   45.2800 C.3    48  LYS48       0.1561
     20  C         39.7530   21.2150   44.5850 C.2    48  LYS48       0.2260
     21  O         39.7670   19.9870   44.6560 O.2    48  LYS48      -0.2867
     22  CB        39.2040   22.8870   46.4150 C.3    48  LYS48       0.0271
     23  CG        38.1910   23.9410   46.8790 C.3    48  LYS48       0.0035
     24  CD        38.6250   24.6810   48.1410 C.3    48  LYS48       0.0206
     25  CE        37.5800   25.7310   48.5280 C.3    48  LYS48       0.1093
     26  NZ        37.8920   26.4250   49.8110 N.3    48  LYS48      -0.1314
     27  N         32.3230   23.4710   43.7900 N.3    81  HIS81      -0.1241
     28  CA        33.2610   24.5530   44.0970 C.3    81  HIS81       0.1621
     29  C         34.6440   23.9550   44.3780 C.2    81  HIS81       0.2264
     30  O         34.7860   23.2100   45.3430 O.2    81  HIS81      -0.2867
     31  CB        32.7420   25.2800   45.3470 C.3    81  HIS81       0.0745
     32  CG        33.6070   26.4060   45.8210 C.ar   81  HIS81       0.0817
     33  ND1       33.6660   27.6240   45.1780 N.ar   81  HIS81      -0.2268
     34  CD2       34.4080   26.5160   46.9080 C.ar   81  HIS81       0.1154
     35  CE1       34.4620   28.4370   45.8500 C.ar   81  HIS81       0.1986
     36  NE2       34.9240   27.7900   46.9050 N.ar   81  HIS81      -0.2212
     37  N         41.2350   27.8990   39.6650 N.3    85  TRP85      -0.1241
     38  CA        41.5740   29.1170   40.3840 C.3    85  TRP85       0.1605
     39  C         42.9760   29.0220   40.9770 C.2    85  TRP85       0.2264
     40  O         43.5660   27.9390   41.0300 O.2    85  TRP85      -0.2867
     41  CB        40.5280   29.4200   41.4680 C.3    85  TRP85       0.0550
     42  CG        40.4630   28.4580   42.6140 C.ar   85  TRP85       0.0003
     43  CD1       40.6390   27.1020   42.5690 C.ar   85  TRP85       0.0946
     44  CD2       40.1210   28.7730   43.9690 C.ar   85  TRP85       0.0152
     45  NE1       40.4240   26.5550   43.8150 N.ar   85  TRP85      -0.2442
     46  CE2       40.1050   27.5580   44.6920 C.ar   85  TRP85       0.0810
     47  CE3       39.8230   29.9670   44.6440 C.ar   85  TRP85       0.0012
     48  CZ2       39.8010   27.5010   46.0580 C.ar   85  TRP85       0.0191
     49  CZ3       39.5210   29.9100   46.0060 C.ar   85  TRP85       0.0001
     50  CH2       39.5130   28.6830   46.6960 C.ar   85  TRP85       0.0015
     51  N         44.5050   27.3190   46.9280 N.3    88  GLN88      -0.1245
     52  CA        44.4620   25.9320   47.3660 C.3    88  GLN88       0.1566
     53  C         44.8200   24.9210   46.2830 C.2    88  GLN88       0.2260
     54  O         44.2520   23.8290   46.2220 O.2    88  GLN88      -0.2867
     55  CB        43.0870   25.6160   47.9660 C.3    88  GLN88       0.0367
     56  CG        42.9150   26.1790   49.3700 C.3    88  GLN88       0.0905
     57  CD        41.5120   26.0060   49.9160 C.2    88  GLN88       0.2608
     58  OE1       40.6310   26.8390   49.6830 O.2    88  GLN88      -0.2717
     59  NE2       41.2940   24.9140   50.6430 N.am   88  GLN88      -0.0878
     60  N         37.8570   33.8130   41.7390 N.3   128  HIS128     -0.1241
     61  CA        38.8970   34.7720   42.1230 C.3   128  HIS128      0.1621
     62  C         39.8470   35.2280   41.0120 C.2   128  HIS128      0.2264
     63  O         41.0330   35.4340   41.2720 O.2   128  HIS128     -0.2867
     64  CB        39.7510   34.1710   43.2460 C.3   128  HIS128      0.0745
     65  CG        38.9990   33.8770   44.5090 C.ar  128  HIS128      0.0817
     66  ND1       37.6680   33.5170   44.5250 N.ar  128  HIS128     -0.2268
     67  CD2       39.4140   33.8370   45.7970 C.ar  128  HIS128      0.1154
     68  CE1       37.2970   33.2690   45.7700 C.ar  128  HIS128      0.1986
     69  NE2       38.3380   33.4550   46.5610 N.ar  128  HIS128     -0.2212
     70  N         42.2620   42.9660   43.5430 N.3   132  ASP132     -0.1239
     71  CA        41.6760   43.8920   44.5070 C.3   132  ASP132      0.1674
     72  C         42.4450   45.2140   44.4960 C.2   132  ASP132      0.2266
     73  O         42.1630   46.1020   45.3010 O.2   132  ASP132     -0.2867
     74  CB        41.7330   43.3210   45.9290 C.3   132  ASP132      0.1410
     75  CG        40.8700   42.0880   46.1060 C.2   132  ASP132      0.3668
     76  OD1       39.7050   42.1040   45.6600 O.co2 132  ASP132     -0.2456
     77  OD2       41.3570   41.1070   46.7070 O.co2 132  ASP132     -0.2456
     78  N         34.6780   37.4280   44.9310 N.3   172  TYR172     -0.1227
     79  CA        34.2960   38.2430   46.0780 C.3   172  TYR172      0.1736
     80  C         34.6110   39.7070   45.7750 C.2   172  TYR172      0.2595
     81  O         35.3170   40.0120   44.8120 O.2   172  TYR172     -0.2718
     82  CB        35.0580   37.8080   47.3330 C.3   172  TYR172      0.0548
     83  CG        36.5550   37.9990   47.2280 C.ar  172  TYR172     -0.0200
     84  CD1       37.3570   37.0560   46.5810 C.ar  172  TYR172     -0.0009
     85  CD2       37.1660   39.1450   47.7410 C.ar  172  TYR172     -0.0009
     86  CE1       38.7340   37.2490   46.4470 C.ar  172  TYR172      0.0417
     87  CE2       38.5380   39.3500   47.6100 C.ar  172  TYR172      0.0417
     88  CZ        39.3140   38.4010   46.9630 C.ar  172  TYR172      0.1957
     89  OH        40.6660   38.6100   46.8270 O.3   172  TYR172     -0.2866
     90  N         34.1010   40.6060   46.6120 N.am  173  ASN173     -0.1974
     91  CA        34.3160   42.0370   46.4280 C.3   173  ASN173      0.1688
     92  C         33.8190   42.5120   45.0610 C.2   173  ASN173      0.2292
     93  O         34.3860   43.4330   44.4690 O.2   173  ASN173     -0.2864
     94  CB        35.8010   42.3930   46.6010 C.3   173  ASN173      0.1181
     95  CG        36.2150   42.5090   48.0640 C.2   173  ASN173      0.2629
     96  OD1       37.3570   42.8660   48.3710 O.2   173  ASN173     -0.2716
     97  ND2       35.2920   42.2120   48.9720 N.am  173  ASN173     -0.0877
     98  N         30.0390   35.9210   45.9990 N.3   205  GLN205     -0.1245
     99  CA        30.3190   35.3220   47.3020 C.3   205  GLN205      0.1566
    100  C         29.6490   36.0350   48.4610 C.2   205  GLN205      0.2260
    101  O         29.1830   35.3960   49.4040 O.2   205  GLN205     -0.2867
    102  CB        31.8260   35.2330   47.5170 C.3   205  GLN205      0.0367
    103  CG        32.4850   34.3810   46.4550 C.3   205  GLN205      0.0905
    104  CD        33.9720   34.2150   46.6560 C.2   205  GLN205      0.2608
    105  OE1       34.6680   33.7380   45.7670 O.2   205  GLN205     -0.2717
    106  NE2       34.4660   34.5980   47.8260 N.am  205  GLN205     -0.0878
    107  N         30.8270   38.1490   50.9610 N.3   207  HIS207     -0.1241
    108  CA        31.4560   38.1060   52.2740 C.3   207  HIS207      0.1621
    109  C         31.4730   39.5740   52.6850 C.2   207  HIS207      0.2264
    110  O         32.3330   40.3410   52.2470 O.2   207  HIS207     -0.2867
    111  CB        32.8820   37.5600   52.1830 C.3   207  HIS207      0.0745
    112  CG        32.9480   36.0860   51.9340 C.ar  207  HIS207      0.0817
    113  ND1       32.4660   35.1570   52.8320 N.ar  207  HIS207     -0.2268
    114  CD2       33.4400   35.3790   50.8890 C.ar  207  HIS207      0.1154
    115  CE1       32.6580   33.9420   52.3500 C.ar  207  HIS207      0.1986
    116  NE2       33.2470   34.0490   51.1720 N.ar  207  HIS207     -0.2212
    117  N         31.6840   42.7110   55.4650 N.3   209  ASN209     -0.1240
    118  CA        32.2700   43.1250   56.7390 C.3   209  ASN209      0.1653
    119  C         32.5640   44.6220   56.6410 C.2   209  ASN209      0.2266
    120  O         32.3460   45.2220   55.5870 O.2   209  ASN209     -0.2867
    121  CB        33.5440   42.3260   57.0380 C.3   209  ASN209      0.1155
    122  CG        34.5290   42.3350   55.8870 C.2   209  ASN209      0.2627
    123  OD1       34.9170   43.3920   55.3970 O.2   209  ASN209     -0.2716
    124  ND2       34.9450   41.1490   55.4550 N.am  209  ASN209     -0.0877
    125  N         35.1650   46.0540   56.2260 N.3   211  GLY211     -0.1210
    126  CA        36.2320   46.3130   55.2750 C.3   211  GLY211      0.1956
    127  C         35.6430   46.3720   53.8730 C.2   211  GLY211      0.2612
    128  O         36.0730   47.1660   53.0340 O.2   211  GLY211     -0.2717
    129  N         34.6500   45.5190   53.6280 N.am  212  SER212     -0.1952
    130  CA        33.9460   45.4450   52.3460 C.3   212  SER212      0.1924
    131  C         32.4660   45.2840   52.7000 C.2   212  SER212      0.2314
    132  O         31.8920   44.1940   52.6000 O.2   212  SER212     -0.2863
    133  CB        34.4430   44.2450   51.5350 C.3   212  SER212      0.2116
    134  OG        34.2980   43.0400   52.2650 O.3   212  SER212     -0.2180
    135  N         28.4660   32.5500   48.9160 N.3   236  GLU236     -0.1245
    136  CA        29.1940   32.3000   50.1620 C.3   236  GLU236      0.1567
    137  C         28.8730   33.3560   51.2040 C.2   236  GLU236      0.2260
    138  O         29.7460   33.8360   51.9220 O.2   236  GLU236     -0.2867
    139  CB        30.6980   32.3020   49.8660 C.3   236  GLU236      0.0388
    140  CG        31.1020   31.2650   48.8250 C.3   236  GLU236      0.1160
    141  CD        32.5770   31.3160   48.4660 C.2   236  GLU236      0.3649
    142  OE1       33.3770   31.8310   49.2740 O.co2 236  GLU236     -0.2457
    143  OE2       32.9360   30.8250   47.3760 O.co2 236  GLU236     -0.2457
    144  N         27.9180   30.8010   53.9690 N.3   266  TRP266     -0.1241
    145  CA        29.1400   30.0150   54.0930 C.3   266  TRP266      0.1605
    146  C         29.3470   29.3100   55.4310 C.2   266  TRP266      0.2264
    147  O         30.3000   29.5930   56.1530 O.2   266  TRP266     -0.2867
    148  CB        30.3570   30.8930   53.7590 C.3   266  TRP266      0.0550
    149  CG        31.5150   30.1050   53.2250 C.ar  266  TRP266      0.0003
    150  CD1       32.7740   30.0370   53.7500 C.ar  266  TRP266      0.0946
    151  CD2       31.5130   29.2480   52.0760 C.ar  266  TRP266      0.0152
    152  NE1       33.5550   29.1890   53.0010 N.ar  266  TRP266     -0.2442
    153  CE2       32.8070   28.6910   51.9680 C.ar  266  TRP266      0.0810
    154  CE3       30.5430   28.8940   51.1290 C.ar  266  TRP266      0.0012
    155  CZ2       33.1580   27.7990   50.9490 C.ar  266  TRP266      0.0191
    156  CZ3       30.8910   28.0050   50.1130 C.ar  266  TRP266      0.0001
    157  CH2       32.1890   27.4680   50.0330 C.ar  266  TRP266      0.0015
    158  N         34.6920   29.9570   58.8660 N.3   274  TRP274     -0.1227
    159  CA        36.1030   30.1800   58.5860 C.3   274  TRP274      0.1737
    160  C         36.5110   31.4920   59.2580 C.2   274  TRP274      0.2595
    161  O         37.6980   31.7900   59.4000 O.2   274  TRP274     -0.2718
    162  CB        36.3320   30.2560   57.0720 C.3   274  TRP274      0.0564
    163  CG        35.6710   31.4320   56.4040 C.ar  274  TRP274      0.0003
    164  CD1       34.3540   31.7930   56.4820 C.ar  274  TRP274      0.0946
    165  CD2       36.2990   32.3920   55.5460 C.ar  274  TRP274      0.0152
    166  NE1       34.1240   32.9170   55.7230 N.ar  274  TRP274     -0.2442
    167  CE2       35.3010   33.3070   55.1380 C.ar  274  TRP274      0.0810
    168  CE3       37.6100   32.5690   55.0810 C.ar  274  TRP274      0.0012
    169  CZ2       35.5720   34.3860   54.2840 C.ar  274  TRP274      0.0191
    170  CZ3       37.8810   33.6400   54.2320 C.ar  274  TRP274      0.0001
    171  CH2       36.8640   34.5360   53.8420 C.ar  274  TRP274      0.0015
    172  N         35.5100   32.2710   59.6640 N.am  275  ARG275     -0.1980
    173  CA        35.7250   33.5450   60.3500 C.3   275  ARG275      0.1597
    174  C         34.7780   33.6340   61.5440 C.2   275  ARG275      0.2287
    175  O         33.9760   34.5650   61.6600 O.2   275  ARG275     -0.2864
    176  CB        35.4860   34.7210   59.3940 C.3   275  ARG275      0.0334
    177  CG        36.6120   34.9200   58.3890 C.3   275  ARG275      0.0492
    178  CD        36.3580   36.1070   57.4720 C.3   275  ARG275      0.2205
    179  NE        37.4830   36.3240   56.5640 N.pl3 275  ARG275     -0.0865
    180  CZ        37.4540   37.1470   55.5210 C.cat 275  ARG275      0.5346
    181  NH1       36.3540   37.8370   55.2490 N.pl3 275  ARG275      0.1354
    182  NH2       38.5240   37.2720   54.7470 N.pl3 275  ARG275      0.1354
@<TRIPOS>BOND
     1    37    38    1
     2    38    39    1
     3    38    41    1
     4    39    40    2
     5    62    63    2
     6    62    61    1
     7    41    42    1
     8    60    61    1
     9    61    64    1
    10    43    42   ar
    11    43    45   ar
    12    42    44   ar
    13    64    65    1
    14    70    71    1
    15    27    28    1
    16    45    46   ar
    17    44    47   ar
    18    44    46   ar
    19    28    29    1
    20    28    31    1
    21    29    30    2
    22    93    92    2
    23    72    71    1
    24    72    73    2
    25    71    74    1
    26    65    66   ar
    27    65    67   ar
    28    66    68   ar
    29    20    21    2
    30    20    19    1
    31    47    49   ar
    32    46    48   ar
    33    81    80    2
    34    78    79    1
    35    92    91    1
    36    33    32   ar
    37    33    35   ar
    38    19    18    1
    39    19    22    1
    40    31    32    1
    41    76    75   ar
    42   105   104    2
    43    68    69   ar
    44    80    79    1
    45    80    90   am
    46    67    69   ar
    47    32    34   ar
    48    35    36   ar
    49    74    75    1
    50    98    99    1
    51    49    50   ar
    52    48    50   ar
    53    79    82    1
    54    75    77   ar
    55    54    53    2
    56    53    52    1
    57    22    23    1
    58    91    94    1
    59    91    90    1
    60    86    84   ar
    61    86    88   ar
    62   103   104    1
    63   103   102    1
    64    84    83   ar
    65    94    95    1
    66   104   106   am
    67    89    88    1
    68    23    24    1
    69    36    34   ar
    70    51    52    1
    71    88    87   ar
    72    83    82    1
    73    83    85   ar
    74    99   102    1
    75    99   100    1
    76    52    55    1
    77   143   141   ar
    78    87    85   ar
    79    55    56    1
    80    95    96    2
    81    95    97   am
    82    24    25    1
    83   100   101    2
    84   141   140    1
    85   141   142   ar
    86    25    26    1
    87   140   139    1
    88   135   136    1
    89    13    12    2
    90    56    57    1
    91    58    57    2
    92    12    11    1
    93   139   136    1
    94    57    59   am
    95   157   156   ar
    96   157   155   ar
    97   156   154   ar
    98   136   137    1
    99    11    10    1
   100    11    14    1
   101     4     3    2
   102   114   116   ar
   103   114   112   ar
   104   155   153   ar
   105   107   108    1
   106    10     3   am
   107   154   151   ar
   108   116   115   ar
   109   137   138    2
   110     3     2    1
   111     1     2    1
   112   133   134    1
   113   133   130    1
   114    14    15    1
   115     2     5    1
   116    16    15    2
   117   112   111    1
   118   112   113   ar
   119   153   151   ar
   120   153   152   ar
   121   151   149   ar
   122   111   108    1
   123   110   109    2
   124   108   109    1
   125   130   131    1
   126   130   129    1
   127   115   113   ar
   128    15    17   am
   129   132   131    2
   130   152   150   ar
   131   128   127    2
   132   149   150   ar
   133   149   148    1
   134     5     6    1
   135   129   127   am
   136   148   145    1
   137     6     7    1
   138   171   170   ar
   139   171   169   ar
   140   127   126    1
   141   144   145    1
   142   145   146    1
   143   170   168   ar
   144   169   167   ar
   145   182   180    1
   146   168   165   ar
   147   167   165   ar
   148   167   166   ar
   149   181   180    1
   150   126   125    1
   151     7     9   ar
   152     7     8   ar
   153   123   122    2
   154   146   147    2
   155   124   122   am
   156   117   118    1
   157   180   179    2
   158   165   163   ar
   159   120   119    2
   160   166   164   ar
   161   122   121    1
   162   163   164   ar
   163   163   162    1
   164   179   178    1
   165   119   118    1
   166   118   121    1
   167   162   159    1
   168   178   177    1
   169   177   176    1
   170   159   158    1
   171   159   160    1
   172   160   161    2
   173   160   172   am
   174   176   173    1
   175   172   173    1
   176   173   174    1
   177   174   175    2
