@<TRIPOS>MOLECULE
tmp/2d24A01.pdb
 96 92 0 0 0
SMALL
GASTEIGER

@<TRIPOS>ATOM
      1  N          8.6680   30.6760   83.1110 N.3   365  GLY365     -0.1225
      2  CA         8.5280   31.4910   84.2980 C.3   365  GLY365      0.1811
      3  C          9.6810   32.4490   84.5130 C.2   365  GLY365      0.2280
      4  O          9.6820   33.2100   85.4800 O.2   365  GLY365     -0.2866
      5  N          5.7940   36.2690   77.2510 N.3   399  ASP399     -0.1225
      6  CA         4.4720   35.8370   77.6650 C.3   399  ASP399      0.1805
      7  C          3.9050   36.6560   78.8220 C.2   399  ASP399      0.2598
      8  O          4.5840   36.8820   79.8230 O.2   399  ASP399     -0.2718
      9  CB         4.5910   34.3540   78.0510 C.3   399  ASP399      0.1424
     10  CG         3.3060   33.7650   78.5980 C.2   399  ASP399      0.3668
     11  OD1        2.8370   34.2180   79.6600 O.co2 399  ASP399     -0.2456
     12  OD2        2.7780   32.8270   77.9650 O.co2 399  ASP399     -0.2456
     13  N          2.6640   37.1160   78.6690 N.am  400  ALA400     -0.1966
     14  CA         1.9990   37.8720   79.7230 C.3   400  ALA400      0.1728
     15  C          1.4980   36.8170   80.7090 C.2   400  ALA400      0.2616
     16  O          0.6320   35.9990   80.3780 O.2   400  ALA400     -0.2715
     17  CB         0.8350   38.6670   79.1520 C.3   400  ALA400      0.0334
     18  N          2.0610   36.8450   81.9120 N.am  401  VAL401     -0.1963
     19  CA         1.7500   35.8880   82.9700 C.3   401  VAL401      0.1727
     20  C          0.2750   35.5660   83.1940 C.2   401  VAL401      0.2617
     21  O         -0.5520   36.4590   83.3910 O.2   401  VAL401     -0.2715
     22  CB         2.3610   36.3510   84.3110 C.3   401  VAL401      0.0290
     23  CG1        1.9300   35.4180   85.4350 C.3   401  VAL401      0.0023
     24  CG2        3.8880   36.3820   84.1970 C.3   401  VAL401      0.0023
     25  N         -0.0300   34.2710   83.1810 N.am  402  GLY402     -0.1940
     26  CA        -1.3890   33.8060   83.3950 C.3   402  GLY402      0.2014
     27  C         -2.3830   34.2710   82.3530 C.2   402  GLY402      0.2639
     28  O         -3.5910   34.1780   82.5630 O.2   402  GLY402     -0.2714
     29  N         -1.8860   34.7610   81.2240 N.am  403  GLY403     -0.1954
     30  CA        -2.7780   35.2470   80.1890 C.3   403  GLY403      0.1869
     31  C         -3.4210   36.5450   80.6400 C.2   403  GLY403      0.2309
     32  O         -4.4390   36.9740   80.0940 O.2   403  GLY403     -0.2863
     33  N          7.0000   37.2730   81.2960 N.3   412  GLN412     -0.1245
     34  CA         7.9120   36.1660   81.5730 C.3   412  GLN412      0.1566
     35  C          8.2330   35.4380   80.2770 C.2   412  GLN412      0.2260
     36  O          7.6950   35.7670   79.2200 O.2   412  GLN412     -0.2867
     37  CB         7.2260   35.1660   82.5050 C.3   412  GLN412      0.0367
     38  CG         6.1990   34.3040   81.7580 C.3   412  GLN412      0.0905
     39  CD         5.3660   33.4140   82.6620 C.2   412  GLN412      0.2608
     40  OE1        5.8190   32.9790   83.7200 O.2   412  GLN412     -0.2717
     41  NE2        4.1400   33.1240   82.2320 N.am  412  GLN412     -0.0878
     42  N          8.1020   31.8000   78.2880 N.3   414  TYR414     -0.1227
     43  CA         7.2880   30.5950   78.3720 C.3   414  TYR414      0.1736
     44  C          7.2030   29.8870   77.0300 C.2   414  TYR414      0.2596
     45  O          7.3050   30.5210   75.9790 O.2   414  TYR414     -0.2718
     46  CB         5.8820   30.9340   78.8780 C.3   414  TYR414      0.0548
     47  CG         5.2180   29.7810   79.5970 C.ar  414  TYR414     -0.0200
     48  CD1        4.6060   28.7440   78.8900 C.ar  414  TYR414     -0.0009
     49  CD2        5.2370   29.7080   80.9890 C.ar  414  TYR414     -0.0009
     50  CE1        4.0300   27.6590   79.5580 C.ar  414  TYR414      0.0417
     51  CE2        4.6680   28.6330   81.6640 C.ar  414  TYR414      0.0417
     52  CZ         4.0680   27.6130   80.9450 C.ar  414  TYR414      0.1957
     53  OH         3.5090   26.5510   81.6210 O.3   414  TYR414     -0.2866
     54  N          7.0330   28.5670   77.0710 N.am  415  SER415     -0.1938
     55  CA         6.9210   27.7730   75.8560 C.3   415  SER415      0.2055
     56  C          5.9720   28.4930   74.9130 C.2   415  SER415      0.2643
     57  O          4.8690   28.8760   75.3070 O.2   415  SER415     -0.2714
     58  CB         6.3650   26.3800   76.1700 C.3   415  SER415      0.2130
     59  OG         7.2090   25.6760   77.0610 O.3   415  SER415     -0.2179
     60  N          6.4070   28.6880   73.6750 N.am  416  CYS416     -0.1953
     61  CA         5.5840   29.3750   72.6880 C.3   416  CYS416      0.1843
     62  C          4.2870   28.6020   72.4740 C.2   416  CYS416      0.2626
     63  O          4.3030   27.3830   72.3120 O.2   416  CYS416     -0.2714
     64  CB         6.3560   29.5200   71.3830 C.3   416  CYS416      0.0997
     65  SG         7.8400   30.5760   71.5180 S.3   416  CYS416     -0.0797
     66  N          3.1680   29.3200   72.4660 N.am  417  SER417     -0.1936
     67  CA         1.8600   28.6900   72.3320 C.3   417  SER417      0.2055
     68  C          0.9390   29.2710   71.2670 C.2   417  SER417      0.2643
     69  O         -0.1560   28.7490   71.0480 O.2   417  SER417     -0.2714
     70  CB         1.1360   28.7650   73.6750 C.3   417  SER417      0.2130
     71  OG         0.8870   30.1180   74.0200 O.3   417  SER417     -0.2179
     72  N          1.3650   30.3450   70.6130 N.am  418  ASN418     -0.1971
     73  CA         0.5340   30.9930   69.6000 C.3   418  ASN418      0.1688
     74  C         -0.6560   31.6570   70.2900 C.2   418  ASN418      0.2292
     75  O         -1.6170   32.0640   69.6370 O.2   418  ASN418     -0.2864
     76  CB         0.0240   29.9780   68.5690 C.3   418  ASN418      0.1181
     77  CG         1.1360   29.4000   67.7180 C.2   418  ASN418      0.2629
     78  OD1        1.8090   30.1220   66.9810 O.2   418  ASN418     -0.2716
     79  ND2        1.3360   28.0910   67.8150 N.am  418  ASN418     -0.0877
     80  N         -1.6440   36.0590   74.3460 N.3   421  ASN421     -0.1225
     81  CA        -0.8300   36.6810   75.3850 C.3   421  ASN421      0.1785
     82  C          0.6490   36.5030   75.0530 C.2   421  ASN421      0.2597
     83  O          1.5230   36.8130   75.8630 O.2   421  ASN421     -0.2718
     84  CB        -1.1520   36.0770   76.7580 C.3   421  ASN421      0.1169
     85  CG        -0.7410   34.6230   76.8730 C.2   421  ASN421      0.2627
     86  OD1       -0.9930   33.8230   75.9740 O.2   421  ASN421     -0.2716
     87  ND2       -0.1180   34.2720   77.9920 N.am  421  ASN421     -0.0877
     88  N          0.9090   35.9980   73.8490 N.am  422  GLN422     -0.1979
     89  CA         2.2640   35.7900   73.3520 C.3   422  GLN422      0.1601
     90  C          2.4270   36.4280   71.9750 C.2   422  GLN422      0.2287
     91  O          3.4580   36.2600   71.3240 O.2   422  GLN422     -0.2864
     92  CB         2.5910   34.2980   73.2640 C.3   422  GLN422      0.0394
     93  CG         2.9820   33.6670   74.5870 C.3   422  GLN422      0.0908
     94  CD         3.4970   32.2510   74.4200 C.2   422  GLN422      0.2608
     95  OE1        3.8600   31.8380   73.3170 O.2   422  GLN422     -0.2717
     96  NE2        3.5470   31.5030   75.5170 N.am  422  GLN422     -0.0878
@<TRIPOS>BOND
     1    78    77    2
     2    77    79   am
     3    77    76    1
     4    76    73    1
     5    73    74    1
     6    73    72    1
     7    75    74    2
     8    72    68   am
     9    69    68    2
    10    68    67    1
    11    91    90    2
    12    64    65    1
    13    64    61    1
    14    90    89    1
    15    63    62    2
    16    67    66    1
    17    67    70    1
    18    66    62   am
    19    62    61    1
    20    61    60    1
    21    92    89    1
    22    92    93    1
    23    95    94    2
    24    89    88    1
    25    60    56   am
    26    70    71    1
    27    88    82   am
    28    80    81    1
    29    94    93    1
    30    94    96   am
    31    56    57    2
    32    56    55    1
    33    82    81    1
    34    82    83    2
    35    81    84    1
    36    55    58    1
    37    55    54    1
    38    86    85    2
    39    45    44    2
    40    58    59    1
    41    84    85    1
    42    85    87   am
    43    44    54   am
    44    44    43    1
    45     5     6    1
    46     6     9    1
    47     6     7    1
    48    12    10   ar
    49     9    10    1
    50    42    43    1
    51    43    46    1
    52    10    11   ar
    53    13     7   am
    54    13    14    1
    55     7     8    2
    56    46    47    1
    57    48    50   ar
    58    48    47   ar
    59    17    14    1
    60    36    35    2
    61    50    52   ar
    62    47    49   ar
    63    14    15    1
    64    32    31    2
    65    30    31    1
    66    30    29    1
    67    35    34    1
    68    16    15    2
    69    15    18   am
    70    52    53    1
    71    52    51   ar
    72    49    51   ar
    73    29    27   am
    74    33    34    1
    75    34    37    1
    76    38    37    1
    77    38    39    1
    78    18    19    1
    79    41    39   am
    80    27    28    2
    81    27    26    1
    82    39    40    2
    83    19    20    1
    84    19    22    1
    85     1     2    1
    86    25    20   am
    87    25    26    1
    88    20    21    2
    89    24    22    1
    90     2     3    1
    91    22    23    1
    92     3     4    2
