@<TRIPOS>MOLECULE
tmp/2d29B00.pdb
 194 185 0 0 0
SMALL
GASTEIGER

@<TRIPOS>ATOM
      1  N         57.5890   78.3760   38.4780 N.3    86  LEU86      -0.1245
      2  CA        58.9890   78.7560   38.6450 C.3    86  LEU86       0.1561
      3  C         59.3360   79.8710   37.6710 C.2    86  LEU86       0.2260
      4  O         60.0700   80.7920   38.0110 O.2    86  LEU86      -0.2867
      5  CB        59.9210   77.5680   38.4060 C.3    86  LEU86       0.0270
      6  CG        61.4190   77.8680   38.5660 C.3    86  LEU86       0.0019
      7  CD1       61.7110   78.2900   40.0060 C.3    86  LEU86       0.0001
      8  CD2       62.2350   76.6350   38.1900 C.3    86  LEU86       0.0001
      9  N         63.7870   87.5800   40.8910 N.3    94  LEU94      -0.1245
     10  CA        65.2090   87.7470   40.6650 C.3    94  LEU94       0.1561
     11  C         65.6020   88.8690   39.7050 C.2    94  LEU94       0.2260
     12  O         65.9180   89.9690   40.1490 O.2    94  LEU94      -0.2867
     13  CB        65.8020   86.3990   40.2260 C.3    94  LEU94       0.0270
     14  CG        65.3680   85.2140   41.1130 C.3    94  LEU94       0.0019
     15  CD1       66.0060   83.9220   40.6150 C.3    94  LEU94       0.0001
     16  CD2       65.7560   85.4760   42.5680 C.3    94  LEU94       0.0001
     17  N         68.4880   85.7820   35.7450 N.3   124  TRP124     -0.1241
     18  CA        69.3490   86.2730   36.8150 C.3   124  TRP124      0.1605
     19  C         70.5040   85.2850   36.9650 C.2   124  TRP124      0.2264
     20  O         70.3010   84.1410   37.3680 O.2   124  TRP124     -0.2867
     21  CB        68.5090   86.3450   38.0910 C.3   124  TRP124      0.0550
     22  CG        69.0900   87.0930   39.2460 C.ar  124  TRP124      0.0003
     23  CD1       69.2410   88.4460   39.3620 C.ar  124  TRP124      0.0946
     24  CD2       69.4810   86.5340   40.5040 C.ar  124  TRP124      0.0152
     25  NE1       69.6930   88.7650   40.6240 N.ar  124  TRP124     -0.2442
     26  CE2       69.8480   87.6080   41.3440 C.ar  124  TRP124      0.0810
     27  CE3       69.5520   85.2260   41.0060 C.ar  124  TRP124      0.0012
     28  CZ2       70.2810   87.4130   42.6630 C.ar  124  TRP124      0.0191
     29  CZ3       69.9820   85.0350   42.3170 C.ar  124  TRP124      0.0001
     30  CH2       70.3400   86.1250   43.1280 C.ar  124  TRP124      0.0015
     31  N         73.6480   84.1850   38.8950 N.3   126  LEU126     -0.1231
     32  CA        74.5090   84.2440   40.0680 C.3   126  LEU126      0.1693
     33  C         75.3770   82.9920   40.1490 C.2   126  LEU126      0.2593
     34  O         76.6040   83.0680   40.1950 O.2   126  LEU126     -0.2718
     35  CB        73.6650   84.3590   41.3420 C.3   126  LEU126      0.0284
     36  CG        74.4280   84.3020   42.6730 C.3   126  LEU126      0.0019
     37  CD1       75.3460   85.5120   42.8000 C.3   126  LEU126      0.0001
     38  CD2       73.4370   84.2610   43.8290 C.3   126  LEU126      0.0001
     39  N         74.7160   81.8390   40.1560 N.am  127  THR127     -0.1939
     40  CA        75.3750   80.5470   40.2610 C.3   127  THR127      0.2028
     41  C         76.3160   80.2010   39.1130 C.2   127  THR127      0.2642
     42  O         76.0650   80.5460   37.9590 O.2   127  THR127     -0.2714
     43  CB        74.3200   79.4340   40.3930 C.3   127  THR127      0.1808
     44  OG1       73.5130   79.6950   41.5470 O.3   127  THR127     -0.2208
     45  CG2       74.9780   78.0710   40.5370 C.3   127  THR127      0.0379
     46  N         77.4000   79.5090   39.4520 N.am  128  GLU128     -0.1976
     47  CA        78.3980   79.0910   38.4760 C.3   128  GLU128      0.1602
     48  C         78.7370   77.6180   38.6770 C.2   128  GLU128      0.2287
     49  O         78.3400   77.0120   39.6730 O.2   128  GLU128     -0.2864
     50  CB        79.6620   79.9390   38.6250 C.3   128  GLU128      0.0415
     51  CG        79.4140   81.4250   38.4640 C.3   128  GLU128      0.1163
     52  CD        80.6950   82.2230   38.3030 C.2   128  GLU128      0.3649
     53  OE1       80.6010   83.4530   38.1100 O.co2 128  GLU128     -0.2457
     54  OE2       81.7900   81.6230   38.3670 O.co2 128  GLU128     -0.2457
     55  N         80.4370   77.3150   42.0300 N.3   131  SER131     -0.1202
     56  CA        79.8550   77.9590   43.2020 C.3   131  SER131      0.2020
     57  C         78.3400   78.0950   43.1510 C.2   131  SER131      0.2619
     58  O         77.7770   78.6020   42.1770 O.2   131  SER131     -0.2717
     59  CB        80.4780   79.3450   43.3890 C.3   131  SER131      0.2103
     60  OG        80.2410   80.1630   42.2550 O.3   131  SER131     -0.2182
     61  N         77.6910   77.6450   44.2210 N.am  132  GLY132     -0.1942
     62  CA        76.2480   77.7280   44.3240 C.3   132  GLY132      0.2014
     63  C         75.8930   78.2330   45.7080 C.2   132  GLY132      0.2640
     64  O         75.5670   79.4070   45.8820 O.2   132  GLY132     -0.2714
     65  N         75.9580   77.3490   46.7000 N.am  133  SER133     -0.1935
     66  CA        75.6560   77.7470   48.0690 C.3   133  SER133      0.2055
     67  C         76.6400   78.8410   48.4670 C.2   133  SER133      0.2643
     68  O         76.2680   79.8220   49.1100 O.2   133  SER133     -0.2714
     69  CB        75.7870   76.5500   49.0140 C.3   133  SER133      0.2130
     70  OG        74.9030   75.5070   48.6350 O.3   133  SER133     -0.2179
     71  N         77.8990   78.6620   48.0810 N.am  134  ASP134     -0.1971
     72  CA        78.9410   79.6430   48.3750 C.3   134  ASP134      0.1709
     73  C         78.9520   80.6020   47.1830 C.2   134  ASP134      0.2293
     74  O         79.9360   80.6970   46.4470 O.2   134  ASP134     -0.2864
     75  CB        80.2900   78.9310   48.5220 C.3   134  ASP134      0.1436
     76  CG        81.4210   79.8720   48.8940 C.2   134  ASP134      0.3671
     77  OD1       81.1440   81.0330   49.2560 O.co2 134  ASP134     -0.2456
     78  OD2       82.5900   79.4370   48.8360 O.co2 134  ASP134     -0.2456
     79  N         75.6910   78.8800   35.7800 N.3   156  GLN156     -0.1231
     80  CA        75.0880   77.5470   35.7720 C.3   156  GLN156      0.1698
     81  C         73.6320   77.5070   36.2370 C.2   156  GLN156      0.2592
     82  O         73.2630   78.1860   37.1910 O.2   156  GLN156     -0.2718
     83  CB        75.9190   76.6380   36.6870 C.3   156  GLN156      0.0381
     84  CG        75.7020   75.1460   36.5150 C.3   156  GLN156      0.0905
     85  CD        76.6250   74.5520   35.4680 C.2   156  GLN156      0.2608
     86  OE1       76.5420   74.8860   34.2890 O.2   156  GLN156     -0.2717
     87  NE2       77.5200   73.6700   35.9020 N.am  156  GLN156     -0.0878
     88  N         72.8180   76.7010   35.5560 N.am  157  PHE157     -0.1962
     89  CA        71.4120   76.5200   35.9130 C.3   157  PHE157      0.1771
     90  C         70.6080   77.8170   35.9490 C.2   157  PHE157      0.2619
     91  O         69.8390   78.0390   36.8770 O.2   157  PHE157     -0.2715
     92  CB        71.3170   75.8560   37.2950 C.3   157  PHE157      0.0574
     93  CG        72.0690   74.5530   37.4140 C.ar  157  PHE157     -0.0200
     94  CD1       72.6920   74.2090   38.6120 C.ar  157  PHE157     -0.0042
     95  CD2       72.1320   73.6560   36.3480 C.ar  157  PHE157     -0.0042
     96  CE1       73.3670   72.9880   38.7510 C.ar  157  PHE157     -0.0003
     97  CE2       72.8030   72.4350   36.4760 C.ar  157  PHE157     -0.0003
     98  CZ        73.4200   72.1030   37.6800 C.ar  157  PHE157     -0.0000
     99  N         70.7560   78.6730   34.9450 N.am  158  ILE158     -0.1963
    100  CA        70.0230   79.9360   34.9630 C.3   158  ILE158      0.1727
    101  C         68.6150   79.8490   34.3840 C.2   158  ILE158      0.2616
    102  O         68.4370   79.5360   33.2110 O.2   158  ILE158     -0.2715
    103  CB        70.8130   81.0270   34.2120 C.3   158  ILE158      0.0290
    104  CG1       72.2250   81.1220   34.7940 C.3   158  ILE158      0.0022
    105  CG2       70.0910   82.3620   34.3220 C.3   158  ILE158      0.0023
    106  CD1       72.2640   81.2690   36.3160 C.3   158  ILE158      0.0001
    107  N         67.6090   80.1320   35.2110 N.am  159  THR159     -0.1951
    108  CA        66.2250   80.0810   34.7530 C.3   159  THR159      0.1897
    109  C         65.9770   81.2100   33.7500 C.2   159  THR159      0.2313
    110  O         66.3500   82.3550   33.9950 O.2   159  THR159     -0.2863
    111  CB        65.2490   80.1840   35.9380 C.3   159  THR159      0.1794
    112  OG1       65.5630   79.1610   36.8930 O.3   159  THR159     -0.2208
    113  CG2       63.8180   79.9810   35.4720 C.3   159  THR159      0.0378
    114  N         66.2810   67.8040   33.1070 N.3   206  LYS206     -0.1245
    115  CA        65.9940   67.8810   34.5380 C.3   206  LYS206      0.1561
    116  C         65.0350   66.8100   35.0460 C.2   206  LYS206      0.2260
    117  O         64.2320   66.2560   34.2940 O.2   206  LYS206     -0.2867
    118  CB        65.4140   69.2570   34.8850 C.3   206  LYS206      0.0271
    119  CG        66.2880   70.4330   34.4730 C.3   206  LYS206      0.0035
    120  CD        65.7810   71.7510   35.0550 C.3   206  LYS206      0.0206
    121  CE        64.3780   72.1120   34.5830 C.3   206  LYS206      0.1093
    122  NZ        64.2960   72.2810   33.1020 N.3   206  LYS206     -0.1314
    123  N         66.0060   76.3470   31.5840 N.3   214  THR214     -0.1218
    124  CA        67.1870   76.3610   32.4390 C.3   214  THR214      0.1862
    125  C         68.3890   76.1610   31.5320 C.2   214  THR214      0.2287
    126  O         68.4210   75.2150   30.7480 O.2   214  THR214     -0.2866
    127  CB        67.1540   75.2110   33.4630 C.3   214  THR214      0.1770
    128  OG1       65.9020   75.2220   34.1540 O.3   214  THR214     -0.2211
    129  CG2       68.2780   75.3680   34.4700 C.3   214  THR214      0.0375
    130  N         62.7150   70.3150   43.5510 N.3   363  LEU363     -0.1245
    131  CA        63.6770   71.3940   43.3780 C.3   363  LEU363      0.1561
    132  C         63.5550   72.4860   44.4430 C.2   363  LEU363      0.2260
    133  O         64.5290   73.1960   44.7170 O.2   363  LEU363     -0.2867
    134  CB        63.5200   72.0270   41.9910 C.3   363  LEU363      0.0270
    135  CG        64.5710   73.0960   41.6690 C.3   363  LEU363      0.0019
    136  CD1       65.9580   72.4640   41.6130 C.3   363  LEU363      0.0001
    137  CD2       64.2280   73.7590   40.3510 C.3   363  LEU363      0.0001
    138  N         66.1280   72.8050   47.0290 N.3   366  ILE366     -0.1231
    139  CA        67.4620   73.1090   46.5140 C.3   366  ILE366      0.1692
    140  C         67.6210   74.5430   46.0050 C.2   366  ILE366      0.2593
    141  O         68.5540   75.2500   46.4070 O.2   366  ILE366     -0.2718
    142  CB        67.8270   72.1160   45.3810 C.3   366  ILE366      0.0266
    143  CG1       67.8390   70.6890   45.9460 C.3   366  ILE366      0.0019
    144  CG2       69.1900   72.4570   44.7870 C.3   366  ILE366      0.0020
    145  CD1       67.9300   69.5910   44.8900 C.3   366  ILE366      0.0001
    146  N         66.7140   74.9660   45.1290 N.am  367  GLY367     -0.1942
    147  CA        66.7790   76.3110   44.5710 C.3   367  GLY367      0.2014
    148  C         66.6710   77.4500   45.5740 C.2   367  GLY367      0.2639
    149  O         66.0040   77.3290   46.6040 O.2   367  GLY367     -0.2714
    150  N         67.3340   78.5610   45.2480 N.am  368  GLU368     -0.1963
    151  CA        67.3670   79.7730   46.0680 C.3   368  GLU368      0.1733
    152  C         67.7830   79.5210   47.5150 C.2   368  GLU368      0.2617
    153  O         67.2530   80.1210   48.4480 O.2   368  GLU368     -0.2715
    154  CB        66.0150   80.4920   46.0020 C.3   368  GLU368      0.0429
    155  CG        65.6090   80.8460   44.5650 C.3   368  GLU368      0.1163
    156  CD        64.5060   81.8840   44.4770 C.2   368  GLU368      0.3649
    157  OE1       63.8900   82.0030   43.3970 O.co2 368  GLU368     -0.2457
    158  OE2       64.2580   82.5890   45.4750 O.co2 368  GLU368     -0.2457
    159  N         68.7610   78.6400   47.6840 N.am  369  GLY369     -0.1940
    160  CA        69.2510   78.3130   49.0070 C.3   369  GLY369      0.2014
    161  C         68.7680   76.9480   49.4500 C.2   369  GLY369      0.2639
    162  O         67.5880   76.7730   49.7550 O.2   369  GLY369     -0.2714
    163  N         69.6720   75.9750   49.4850 N.am  370  THR370     -0.1950
    164  CA        69.2950   74.6290   49.9080 C.3   370  THR370      0.1897
    165  C         68.7830   74.6540   51.3430 C.2   370  THR370      0.2313
    166  O         69.0750   75.5740   52.1030 O.2   370  THR370     -0.2863
    167  CB        70.4860   73.6690   49.8750 C.3   370  THR370      0.1794
    168  OG1       71.4440   74.0720   50.8640 O.3   370  THR370     -0.2208
    169  CG2       71.1400   73.6760   48.4960 C.3   370  THR370      0.0378
    170  N         69.7950   73.1100   53.7710 N.3   372  GLU372     -0.1231
    171  CA        70.9510   73.1680   54.6680 C.3   372  GLU372      0.1699
    172  C         71.4150   74.6100   54.8650 C.2   372  GLU372      0.2592
    173  O         71.6950   75.0340   55.9900 O.2   372  GLU372     -0.2718
    174  CB        72.1080   72.3250   54.1160 C.3   372  GLU372      0.0402
    175  CG        71.8630   70.8120   54.0930 C.3   372  GLU372      0.1161
    176  CD        70.7230   70.4100   53.1680 C.2   372  GLU372      0.3649
    177  OE1       70.6820   70.9120   52.0230 O.co2 372  GLU372     -0.2457
    178  OE2       69.8710   69.5920   53.5870 O.co2 372  GLU372     -0.2457
    179  N         71.4970   75.3610   53.7700 N.am  373  ILE373     -0.1980
    180  CA        71.9110   76.7570   53.8440 C.3   373  ILE373      0.1595
    181  C         70.8960   77.5730   54.6430 C.2   373  ILE373      0.2287
    182  O         71.2660   78.4270   55.4540 O.2   373  ILE373     -0.2864
    183  CB        72.0600   77.3700   52.4260 C.3   373  ILE373      0.0276
    184  CG1       73.2960   76.7900   51.7400 C.3   373  ILE373      0.0022
    185  CG2       72.1400   78.8860   52.5080 C.3   373  ILE373      0.0022
    186  CD1       74.5790   76.9980   52.5000 C.3   373  ILE373      0.0001
    187  N         71.2780   77.3480   58.2580 N.3   376  LEU376     -0.1245
    188  CA        72.3930   78.1740   58.7280 C.3   376  LEU376      0.1561
    189  C         71.9390   79.6240   58.8700 C.2   376  LEU376      0.2260
    190  O         72.2510   80.2810   59.8630 O.2   376  LEU376     -0.2867
    191  CB        73.5740   78.1020   57.7570 C.3   376  LEU376      0.0270
    192  CG        74.3270   76.7770   57.7250 C.3   376  LEU376      0.0019
    193  CD1       75.4740   76.8750   56.7230 C.3   376  LEU376      0.0001
    194  CD2       74.8530   76.4480   59.1230 C.3   376  LEU376      0.0001
@<TRIPOS>BOND
     1   126   125    2
     2   125   124    1
     3   123   124    1
     4   124   127    1
     5   122   121    1
     6   114   115    1
     7   102   101    2
     8   127   128    1
     9   127   129    1
    10   109   110    2
    11   109   108    1
    12   103   105    1
    13   103   104    1
    14   103   100    1
    15    86    85    2
    16   117   116    2
    17   101   100    1
    18   101   107   am
    19   119   118    1
    20   119   120    1
    21   115   118    1
    22   115   116    1
    23   121   120    1
    24   108   107    1
    25   108   111    1
    26   104   106    1
    27    99   100    1
    28    99    90   am
    29    85    87   am
    30    85    84    1
    31   113   111    1
    32    88    89    1
    33    88    81   am
    34    17    18    1
    35    80    79    1
    36    80    81    1
    37    80    83    1
    38    89    90    1
    39    89    92    1
    40   111   112    1
    41    90    91    2
    42    81    82    2
    43    95    97   ar
    44    95    93   ar
    45    97    98   ar
    46    84    83    1
    47    18    19    1
    48    18    21    1
    49    19    20    2
    50    92    93    1
    51    93    94   ar
    52     3     4    2
    53     3     2    1
    54    98    96   ar
    55    42    41    2
    56    21    22    1
    57    53    52   ar
    58     8     6    1
    59    52    54   ar
    60    52    51    1
    61     5     6    1
    62     5     2    1
    63    51    50    1
    64    47    50    1
    65    47    48    1
    66    47    46    1
    67     1     2    1
    68     6     7    1
    69    94    96   ar
    70    48    49    2
    71    31    32    1
    72    41    46   am
    73    41    40    1
    74    22    23   ar
    75    22    24   ar
    76    23    25   ar
    77    11    12    2
    78    11    10    1
    79    32    33    1
    80    32    35    1
    81    33    39   am
    82    33    34    2
    83    39    40    1
    84    13    10    1
    85    13    14    1
    86    40    43    1
    87   137   135    1
    88    43    45    1
    89    43    44    1
    90    24    27   ar
    91    24    26   ar
    92    15    14    1
    93    25    26   ar
    94    10     9    1
    95    27    29   ar
    96    14    16    1
    97    35    36    1
    98    26    28   ar
    99   136   135    1
   100   135   134    1
   101   134   131    1
   102    55    56    1
   103    58    57    2
   104    60    59    1
   105    29    30   ar
   106    28    30   ar
   107    36    37    1
   108    36    38    1
   109    57    56    1
   110    57    61   am
   111    56    59    1
   112   131   130    1
   113   131   132    1
   114   157   156   ar
   115    61    62    1
   116    62    63    1
   117   132   133    2
   118   156   155    1
   119   156   158   ar
   120   155   154    1
   121   147   146    1
   122   147   148    1
   123   144   142    1
   124   145   143    1
   125   146   140   am
   126   150   148   am
   127   150   151    1
   128   142   143    1
   129   142   139    1
   130   148   149    2
   131    63    64    2
   132    63    65   am
   133   154   151    1
   134   140   141    2
   135   140   139    1
   136   151   152    1
   137    74    73    2
   138   139   138    1
   139    65    66    1
   140    73    72    1
   141   152   159   am
   142   152   153    2
   143   159   160    1
   144    66    67    1
   145    66    69    1
   146    71    72    1
   147    71    67   am
   148    72    75    1
   149    67    68    2
   150   169   167    1
   151    75    76    1
   152    70    69    1
   153    78    76   ar
   154    76    77   ar
   155   160   161    1
   156   161   163   am
   157   161   162    2
   158   163   164    1
   159   167   164    1
   160   167   168    1
   161   164   165    1
   162   165   166    2
   163   184   183    1
   164   184   186    1
   165   177   176   ar
   166   183   185    1
   167   183   180    1
   168   176   178   ar
   169   176   175    1
   170   179   180    1
   171   179   172   am
   172   170   171    1
   173   180   181    1
   174   175   174    1
   175   174   171    1
   176   181   182    2
   177   171   172    1
   178   172   173    2
   179   193   192    1
   180   192   191    1
   181   192   194    1
   182   191   188    1
   183   187   188    1
   184   188   189    1
   185   189   190    2
