@<TRIPOS>MOLECULE
tmp/2d2dA00.pdb
 219 217 0 0 0
SMALL
GASTEIGER

@<TRIPOS>ATOM
      1  N         90.0680   11.5740    7.0570 N.3    22  THR22      -0.1203
      2  CA        88.9470   10.7310    6.6740 C.3    22  THR22       0.1994
      3  C         89.1780    9.2990    7.1370 C.2    22  THR22       0.2619
      4  O         88.2740    8.4640    7.0720 O.2    22  THR22      -0.2717
      5  CB        88.7430   10.7630    5.1200 C.3    22  THR22       0.1784
      6  OG1       87.3870   10.4310    4.8000 O.3    22  THR22      -0.2211
      7  CG2       89.6810    9.7700    4.4250 C.3    22  THR22       0.0376
      8  N         90.3910    9.0150    7.6000 N.am   23  THR23      -0.1938
      9  CA        90.7260    7.6690    8.0550 C.3    23  THR23       0.2028
     10  C         90.3840    7.4770    9.5230 C.2    23  THR23       0.2643
     11  O         90.8730    8.2060   10.3810 O.2    23  THR23      -0.2714
     12  CB        92.2160    7.3740    7.8970 C.3    23  THR23       0.1808
     13  OG1       92.6990    7.9870    6.6980 O.3    23  THR23      -0.2208
     14  CG2       92.4540    5.8740    7.8330 C.3    23  THR23       0.0379
     15  N         89.5340    6.5020    9.8100 N.am   24  THR24      -0.1936
     16  CA        89.1710    6.2200   11.1870 C.3    24  THR24       0.2028
     17  C         89.3470    4.7510   11.4990 C.2    24  THR24       0.2642
     18  O         88.9160    3.8780   10.7470 O.2    24  THR24      -0.2714
     19  CB        87.7220    6.6210   11.5050 C.3    24  THR24       0.1808
     20  OG1       87.6250    8.0480   11.5270 O.3    24  THR24      -0.2208
     21  CG2       87.2970    6.0710   12.8630 C.3    24  THR24       0.0379
     22  N         90.0090    4.4890   12.6130 N.am   25  LEU25      -0.1977
     23  CA        90.2280    3.1310   13.0390 C.3    25  LEU25       0.1596
     24  C         90.3830    3.0530   14.5450 C.2    25  LEU25       0.2287
     25  O         90.1940    4.0390   15.2540 O.2    25  LEU25      -0.2864
     26  CB        91.4300    2.5260   12.3110 C.3    25  LEU25       0.0297
     27  CG        92.6780    3.3560   12.0910 C.3    25  LEU25       0.0022
     28  CD1       93.4000    3.5730   13.4160 C.3    25  LEU25       0.0001
     29  CD2       93.5600    2.6290   11.1020 C.3    25  LEU25       0.0001
     30  N         99.0120    3.8450    9.3980 N.3    39  HIS39      -0.1241
     31  CA        98.3300    4.1610    8.1520 C.3    39  HIS39       0.1621
     32  C         97.0240    4.8970    8.4070 C.2    39  HIS39       0.2264
     33  O         96.1980    5.0530    7.4990 O.2    39  HIS39      -0.2867
     34  CB        98.0660    2.8980    7.3310 C.3    39  HIS39       0.0745
     35  CG        97.0990    1.9480    7.9630 C.ar   39  HIS39       0.0817
     36  ND1       97.4870    0.7340    8.4890 N.ar   39  HIS39      -0.2268
     37  CD2       95.7510    1.9970    8.0860 C.ar   39  HIS39       0.1154
     38  CE1       96.4220    0.0750    8.9050 C.ar   39  HIS39       0.1986
     39  NE2       95.3570    0.8200    8.6710 N.ar   39  HIS39      -0.2212
     40  N         96.5370    8.0610    6.3470 N.3    42  CYS42      -0.1235
     41  CA        96.4970    7.8210    4.9140 C.3    42  CYS42       0.1677
     42  C         95.1270    8.0780    4.3360 C.2    42  CYS42       0.2270
     43  O         94.2650    8.6590    4.9910 O.2    42  CYS42      -0.2867
     44  CB        96.8980    6.3820    4.6040 C.3    42  CYS42       0.0956
     45  SG        98.6530    6.0930    4.7030 S.3    42  CYS42      -0.0801
     46  N         98.3380    5.1350   -0.3970 N.3    47  MET47      -0.1245
     47  CA        98.2100    3.7970    0.1630 C.3    47  MET47       0.1570
     48  C         99.1120    2.7960   -0.5570 C.2    47  MET47       0.2261
     49  O         99.8030    2.0090    0.0930 O.2    47  MET47      -0.2867
     50  CB        96.7550    3.3290    0.1000 C.3    47  MET47       0.0387
     51  CG        95.7920    4.1790    0.9110 C.3    47  MET47       0.0595
     52  SD        94.1140    3.5010    0.9220 S.3    47  MET47      -0.1393
     53  CE        93.9860    2.9230    2.6130 C.3    47  MET47       0.0692
     54  N        105.0700    7.3700    5.0110 N.3    52  TYR52      -0.1241
     55  CA       104.6080    7.7360    6.3370 C.3    52  TYR52       0.1605
     56  C        105.4430    8.8440    6.9570 C.2    52  TYR52       0.2264
     57  O        104.9150    9.9080    7.2790 O.2    52  TYR52      -0.2867
     58  CB       104.6000    6.5050    7.2410 C.3    52  TYR52       0.0534
     59  CG       103.6230    5.4400    6.7930 C.ar   52  TYR52      -0.0201
     60  CD1      103.9880    4.4700    5.8590 C.ar   52  TYR52      -0.0009
     61  CD2      102.3200    5.4200    7.2860 C.ar   52  TYR52      -0.0009
     62  CE1      103.0740    3.5060    5.4320 C.ar   52  TYR52       0.0417
     63  CE2      101.4060    4.4690    6.8630 C.ar   52  TYR52       0.0417
     64  CZ       101.7850    3.5150    5.9410 C.ar   52  TYR52       0.1957
     65  OH       100.8680    2.5720    5.5430 O.3    52  TYR52      -0.2866
     66  N         88.4230  -10.0830   10.0650 N.3   138  PHE138     -0.1227
     67  CA        88.4440   -8.6340   10.1090 C.3   138  PHE138      0.1736
     68  C         87.7630   -8.0360    8.8880 C.2   138  PHE138      0.2595
     69  O         87.8800   -8.5600    7.7790 O.2   138  PHE138     -0.2718
     70  CB        89.8870   -8.1230   10.2000 C.3   138  PHE138      0.0547
     71  CG        90.5840   -8.4870   11.4880 C.ar  138  PHE138     -0.0202
     72  CD1       91.6570   -9.3750   11.4880 C.ar  138  PHE138     -0.0042
     73  CD2       90.1800   -7.9270   12.6970 C.ar  138  PHE138     -0.0042
     74  CE1       92.3140   -9.6970   12.6700 C.ar  138  PHE138     -0.0003
     75  CE2       90.8290   -8.2440   13.8770 C.ar  138  PHE138     -0.0003
     76  CZ        91.9000   -9.1290   13.8640 C.ar  138  PHE138     -0.0000
     77  N         87.0390   -6.9420    9.1160 N.am  139  LEU139     -0.1966
     78  CA        86.3320   -6.2200    8.0630 C.3   139  LEU139      0.1728
     79  C         86.8810   -4.7980    8.0930 C.2   139  LEU139      0.2616
     80  O         87.6130   -4.4430    9.0050 O.2   139  LEU139     -0.2715
     81  CB        84.8200   -6.2270    8.3240 C.3   139  LEU139      0.0311
     82  CG        84.1310   -7.5970    8.2710 C.3   139  LEU139      0.0022
     83  CD1       84.6230   -8.4950    9.4060 C.3   139  LEU139      0.0001
     84  CD2       82.6340   -7.4000    8.3760 C.3   139  LEU139      0.0001
     85  N         86.5490   -3.9870    7.1000 N.am  140  ASN140     -0.1958
     86  CA        87.0650   -2.6240    7.0620 C.3   140  ASN140      0.1819
     87  C         86.7220   -1.8480    8.3260 C.2   140  ASN140      0.2622
     88  O         85.6020   -1.9270    8.8400 O.2   140  ASN140     -0.2715
     89  CB        86.5450   -1.8950    5.8160 C.3   140  ASN140      0.1195
     90  CG        87.0370   -2.5340    4.5160 C.2   140  ASN140      0.2630
     91  OD1       86.2470   -3.0730    3.7360 O.2   140  ASN140     -0.2716
     92  ND2       88.3490   -2.4690    4.2790 N.am  140  ASN140     -0.0877
     93  N         87.7130   -1.1110    8.8250 N.am  141  GLY141     -0.1940
     94  CA        87.5370   -0.3220   10.0290 C.3   141  GLY141      0.2014
     95  C         87.9770   -1.0640   11.2760 C.2   141  GLY141      0.2640
     96  O         87.7840   -0.5820   12.3900 O.2   141  GLY141     -0.2714
     97  N         88.5840   -2.2310   11.0840 N.am  142  SER142     -0.1935
     98  CA        89.0420   -3.0710   12.1960 C.3   142  SER142      0.2055
     99  C         90.5090   -2.8940   12.5530 C.2   142  SER142      0.2643
    100  O         91.0110   -3.5450   13.4730 O.2   142  SER142     -0.2714
    101  CB        88.8060   -4.5550   11.8850 C.3   142  SER142      0.2130
    102  OG        89.7600   -5.0430   10.9530 O.3   142  SER142     -0.2179
    103  N         91.1450   -2.0590   11.9210 N.am  143  CYS143     -0.1967
    104  CA        92.2930   -1.7820   12.0880 C.3   143  CYS143      0.1712
    105  C         92.5370   -0.9510   13.2730 C.2   143  CYS143      0.2296
    106  O         91.8940   -0.3660   13.9480 O.2   143  CYS143     -0.2864
    107  CB        93.1580   -0.9530   11.1200 C.3   143  CYS143      0.0983
    108  SG        93.7330   -2.0100    9.7540 S.3   143  CYS143     -0.0798
    109  N         96.1910   -5.1660   14.4720 N.3   161  HIS161     -0.1226
    110  CA        95.8580   -5.4130   13.0910 C.3   161  HIS161      0.1752
    111  C         96.1040   -4.3040   12.0760 C.2   161  HIS161      0.2596
    112  O         95.7350   -3.1620   12.3100 O.2   161  HIS161     -0.2718
    113  CB        94.4160   -5.8360   13.0200 C.3   161  HIS161      0.0759
    114  CG        94.0670   -6.4440   11.7190 C.ar  161  HIS161      0.0818
    115  ND1       94.8620   -7.3960   11.1270 N.ar  161  HIS161     -0.2268
    116  CD2       93.0360   -6.2210   10.8770 C.ar  161  HIS161      0.1154
    117  CE1       94.3330   -7.7360    9.9670 C.ar  161  HIS161      0.1986
    118  NE2       93.2260   -7.0390    9.7930 N.ar  161  HIS161     -0.2212
    119  N         96.7160   -4.6560   10.9430 N.am  162  HIS162     -0.1961
    120  CA        96.9950   -3.6980    9.8700 C.3   162  HIS162      0.1787
    121  C         96.5060   -4.1710    8.4930 C.2   162  HIS162      0.2620
    122  O         95.5740   -3.6080    7.9360 O.2   162  HIS162     -0.2715
    123  CB        98.4960   -3.4060    9.7400 C.3   162  HIS162      0.0785
    124  CG        99.1120   -2.7530   10.9370 C.ar  162  HIS162      0.0821
    125  ND1      100.0860   -1.7840   10.8260 N.ar  162  HIS162     -0.2267
    126  CD2       98.9490   -2.9690   12.2620 C.ar  162  HIS162      0.1154
    127  CE1      100.4940   -1.4330   12.0290 C.ar  162  HIS162      0.1986
    128  NE2       99.8210   -2.1370   12.9210 N.ar  162  HIS162     -0.2212
    129  N         97.1460   -5.2050    7.9530 N.am  163  MET163     -0.1963
    130  CA        96.8300   -5.7360    6.6270 C.3   163  MET163      0.1736
    131  C         95.9510   -6.9850    6.5900 C.2   163  MET163      0.2616
    132  O         95.7000   -7.6240    7.6070 O.2   163  MET163     -0.2715
    133  CB        98.1260   -6.0870    5.8950 C.3   163  MET163      0.0427
    134  CG        99.2070   -5.0490    5.9840 C.3   163  MET163      0.0599
    135  SD        98.6310   -3.5350    5.2450 S.3   163  MET163     -0.1393
    136  CE        98.8020   -3.9310    3.4790 C.3   163  MET163      0.0692
    137  N         95.5100   -7.3220    5.3770 N.am  164  GLU164     -0.1963
    138  CA        94.7060   -8.5130    5.1080 C.3   164  GLU164      0.1733
    139  C         95.2150   -9.0650    3.8010 C.2   164  GLU164      0.2616
    140  O         94.8590   -8.5760    2.7340 O.2   164  GLU164     -0.2715
    141  CB        93.2470   -8.1900    4.9090 C.3   164  GLU164      0.0429
    142  CG        92.3520   -9.3910    5.1260 C.3   164  GLU164      0.1163
    143  CD        91.3380   -9.5560    4.0260 C.2   164  GLU164      0.3649
    144  OE1       91.6900  -10.1480    2.9810 O.co2 164  GLU164     -0.2457
    145  OE2       90.1960   -9.0810    4.2060 O.co2 164  GLU164     -0.2457
    146  N         96.0520  -10.0830    3.8780 N.am  165  LEU165     -0.1964
    147  CA        96.6050  -10.6600    2.6770 C.3   165  LEU165      0.1713
    148  C         95.4740  -11.2480    1.8530 C.2   165  LEU165      0.2458
    149  O         94.4670  -11.7060    2.4020 O.2   165  LEU165     -0.2730
    150  CB        97.6400  -11.7140    3.0440 C.3   165  LEU165      0.0310
    151  CG        98.9430  -11.1770    3.6450 C.3   165  LEU165      0.0022
    152  CD1       98.6970   -9.9840    4.5520 C.3   165  LEU165      0.0001
    153  CD2       99.6050  -12.3060    4.4110 C.3   165  LEU165      0.0001
    154  N         95.6240  -11.2290    0.5180 N.am  166  PRO166     -0.2727
    155  CA        94.6280  -11.7470   -0.4210 C.3   166  PRO166      0.1402
    156  C         94.2090  -13.1720   -0.0860 C.2   166  PRO166      0.2269
    157  O         93.1570  -13.6520   -0.5280 O.2   166  PRO166     -0.2865
    158  CB        95.3420  -11.6360   -1.7650 C.3   166  PRO166      0.0296
    159  CG        96.7680  -11.8170   -1.3940 C.3   166  PRO166      0.0237
    160  CD        96.8930  -10.9570   -0.1780 C.3   166  PRO166      0.0939
    161  N         95.4070  -12.5500    7.8050 N.3   170  HIS170     -0.1241
    162  CA        95.7630  -11.2170    8.2850 C.3   170  HIS170      0.1621
    163  C         97.1460  -11.0450    8.8620 C.2   170  HIS170      0.2264
    164  O         97.6620  -11.9050    9.5620 O.2   170  HIS170     -0.2867
    165  CB        94.7410  -10.7750    9.3140 C.3   170  HIS170      0.0745
    166  CG        93.3350  -11.0270    8.8820 C.ar  170  HIS170      0.0817
    167  ND1       92.7880  -12.2900    8.8500 N.ar  170  HIS170     -0.2268
    168  CD2       92.3960  -10.1960    8.3710 C.ar  170  HIS170      0.1154
    169  CE1       91.5740  -12.2270    8.3350 C.ar  170  HIS170      0.1986
    170  NE2       91.3140  -10.9680    8.0350 N.ar  170  HIS170     -0.2212
    171  N        102.9480   -2.4520    5.6250 N.3   185  ASP185     -0.1225
    172  CA       101.6620   -1.7770    5.6950 C.3   185  ASP185      0.1805
    173  C        101.4710   -0.8870    4.4830 C.2   185  ASP185      0.2598
    174  O        101.2620    0.3170    4.5960 O.2   185  ASP185     -0.2718
    175  CB       101.5730   -0.9610    6.9790 C.3   185  ASP185      0.1424
    176  CG       102.7620   -0.0470    7.1790 C.2   185  ASP185      0.3668
    177  OD1      103.7680   -0.1880    6.4600 O.co2 185  ASP185     -0.2456
    178  OD2      102.6970    0.8140    8.0770 O.co2 185  ASP185     -0.2456
    179  N        101.5450   -1.5030    3.3140 N.am  186  ARG186     -0.1966
    180  CA       101.3910   -0.7980    2.0650 C.3   186  ARG186      0.1729
    181  C        100.6040   -1.6900    1.1250 C.2   186  ARG186      0.2616
    182  O        100.4860   -2.8910    1.3550 O.2   186  ARG186     -0.2715
    183  CB       102.7700   -0.4890    1.4930 C.3   186  ARG186      0.0348
    184  CG       103.6990    0.0950    2.5390 C.3   186  ARG186      0.0492
    185  CD       104.9800    0.6740    1.9700 C.3   186  ARG186      0.2205
    186  NE       105.8410   -0.3290    1.3470 N.pl3 186  ARG186     -0.0865
    187  CZ       105.6360   -0.8490    0.1400 C.cat 186  ARG186      0.5346
    188  NH1      104.5910   -0.4640   -0.5810 N.pl3 186  ARG186      0.1354
    189  NH2      106.4900   -1.7350   -0.3600 N.pl3 186  ARG186      0.1354
    190  N        100.0530   -1.1010    0.0730 N.am  187  GLN187     -0.1963
    191  CA        99.2820   -1.8620   -0.8940 C.3   187  GLN187      0.1733
    192  C        100.2290   -2.4460   -1.9540 C.2   187  GLN187      0.2617
    193  O        100.0740   -2.1790   -3.1490 O.2   187  GLN187     -0.2715
    194  CB        98.2460   -0.9550   -1.5660 C.3   187  GLN187      0.0408
    195  CG        96.8380   -1.5370   -1.6460 C.3   187  GLN187      0.0908
    196  CD        96.0720   -1.4030   -0.3400 C.2   187  GLN187      0.2608
    197  OE1       95.0860   -0.6650   -0.2510 O.2   187  GLN187     -0.2717
    198  NE2       96.5270   -2.1150    0.6810 N.am  187  GLN187     -0.0878
    199  N        101.2120   -3.2310   -1.5190 N.am  188  THR188     -0.1937
    200  CA       102.1550   -3.8320   -2.4570 C.3   188  THR188      0.2028
    201  C        101.4760   -4.9630   -3.2200 C.2   188  THR188      0.2642
    202  O        100.4860   -4.7540   -3.9250 O.2   188  THR188     -0.2714
    203  CB       103.3990   -4.4200   -1.7430 C.3   188  THR188      0.1808
    204  OG1      103.0080   -5.5250   -0.9200 O.3   188  THR188     -0.2208
    205  CG2      104.0640   -3.3740   -0.8830 C.3   188  THR188      0.0379
    206  N        102.0230   -6.1630   -3.0790 N.am  189  ALA189     -0.1963
    207  CA       101.4900   -7.3440   -3.7380 C.3   189  ALA189      0.1728
    208  C        102.0960   -8.5300   -3.0080 C.2   189  ALA189      0.2616
    209  O        102.3830   -9.5730   -3.5940 O.2   189  ALA189     -0.2715
    210  CB       101.8880   -7.3550   -5.2080 C.3   189  ALA189      0.0334
    211  N        102.2900   -8.3360   -1.7110 N.am  190  GLN190     -0.1977
    212  CA       102.8570   -9.3410   -0.8240 C.3   190  GLN190      0.1601
    213  C        101.9020  -10.5190   -0.6370 C.2   190  GLN190      0.2287
    214  O        100.6840  -10.3560   -0.5940 O.2   190  GLN190     -0.2864
    215  CB       103.1530   -8.6890    0.5240 C.3   190  GLN190      0.0394
    216  CG       101.9710   -7.8930    1.0420 C.3   190  GLN190      0.0908
    217  CD       102.3480   -6.8740    2.0880 C.2   190  GLN190      0.2608
    218  OE1      103.4370   -6.9310    2.6560 O.2   190  GLN190     -0.2717
    219  NE2      101.4540   -5.9330    2.3490 N.am  190  GLN190     -0.0878
@<TRIPOS>BOND
     1   210   207    1
     2   202   201    2
     3   207   206    1
     4   207   208    1
     5   209   208    2
     6   201   206   am
     7   201   200    1
     8   193   192    2
     9   208   211   am
    10   200   203    1
    11   200   199    1
    12   192   199   am
    13   192   191    1
    14   158   159    1
    15   158   155    1
    16   203   204    1
    17   203   205    1
    18   211   212    1
    19   195   194    1
    20   195   196    1
    21   194   191    1
    22   159   160    1
    23   191   190    1
    24   212   213    1
    25   212   215    1
    26   213   214    2
    27   188   187    1
    28    48    49    2
    29    48    47    1
    30   157   156    2
    31   155   156    1
    32   155   154    1
    33    46    47    1
    34   189   187    1
    35   196   197    2
    36   196   198   am
    37   160   154    1
    38   190   181   am
    39    50    47    1
    40    50    51    1
    41   187   186    2
    42   154   148   am
    43   215   216    1
    44    51    52    1
    45    52    53    1
    46   216   217    1
    47   181   182    2
    48   181   180    1
    49   186   185    1
    50   183   180    1
    51   183   184    1
    52   148   149    2
    53   148   147    1
    54   185   184    1
    55   180   179    1
    56   217   219   am
    57   217   218    2
    58   147   150    1
    59   147   146    1
    60   140   139    2
    61   144   143   ar
    62   150   151    1
    63   179   173   am
    64   136   135    1
    65   151   153    1
    66   151   152    1
    67    91    90    2
    68   139   146   am
    69   139   138    1
    70   143   145   ar
    71   143   142    1
    72    92    90   am
    73    42    41    1
    74    42    43    2
    75     7     5    1
    76   173   174    2
    77   173   172    1
    78    90    89    1
    79    44    45    1
    80    44    41    1
    81     6     5    1
    82   141   138    1
    83   141   142    1
    84    41    40    1
    85    54    55    1
    86   138   137    1
    87     5     2    1
    88   135   134    1
    89   137   131   am
    90    62    60   ar
    91    62    64   ar
    92    65    64    1
    93   171   172    1
    94   172   175    1
    95    89    86    1
    96    60    59   ar
    97   133   134    1
    98   133   130    1
    99    64    63   ar
   100    55    56    1
   101    55    58    1
   102   177   176   ar
   103   131   130    1
   104   131   132    2
   105   130   129    1
   106     2     1    1
   107     2     3    1
   108    13    12    1
   109    59    58    1
   110    59    61   ar
   111    63    61   ar
   112    56    57    2
   113   175   176    1
   114    86    85    1
   115    86    87    1
   116     4     3    2
   117    85    79   am
   118     3     8   am
   119   176   178   ar
   120    34    35    1
   121    34    31    1
   122    33    32    2
   123     8     9    1
   124    69    68    2
   125   161   162    1
   126    14    12    1
   127    12     9    1
   128   122   121    2
   129   129   121   am
   130    35    37   ar
   131    35    36   ar
   132   170   169   ar
   133   170   168   ar
   134     9    10    1
   135    78    79    1
   136    78    81    1
   137    78    77    1
   138    37    39   ar
   139    79    80    2
   140    31    32    1
   141    31    30    1
   142    82    81    1
   143    82    84    1
   144    82    83    1
   145   162   163    1
   146   162   165    1
   147    87    93   am
   148    87    88    2
   149   169   167   ar
   150   168   166   ar
   151    36    38   ar
   152   121   120    1
   153    39    38   ar
   154    93    94    1
   155   167   166   ar
   156   163   164    2
   157   166   165    1
   158    68    77   am
   159    68    67    1
   160    10    15   am
   161    10    11    2
   162   123   120    1
   163   123   124    1
   164   108   107    1
   165   118   117   ar
   166   118   116   ar
   167    15    16    1
   168   120   119    1
   169   117   115   ar
   170    94    95    1
   171    66    67    1
   172    67    70    1
   173    70    71    1
   174    18    17    2
   175   125   124   ar
   176   125   127   ar
   177   116   114   ar
   178   124   126   ar
   179   119   111   am
   180   102   101    1
   181    97    95   am
   182    97    98    1
   183    29    27    1
   184   107   104    1
   185   115   114   ar
   186    16    17    1
   187    16    19    1
   188    95    96    2
   189    72    71   ar
   190    72    74   ar
   191    71    73   ar
   192    17    22   am
   193    19    20    1
   194    19    21    1
   195   114   113    1
   196   101    98    1
   197   103   104    1
   198   103    99   am
   199   127   128   ar
   200   111   112    2
   201   111   110    1
   202   104   105    1
   203    27    26    1
   204    27    28    1
   205    98    99    1
   206   126   128   ar
   207    26    23    1
   208    99   100    2
   209    22    23    1
   210    74    76   ar
   211    73    75   ar
   212   113   110    1
   213    23    24    1
   214   110   109    1
   215   105   106    2
   216    76    75   ar
   217    24    25    2
