@<TRIPOS>MOLECULE
tmp/2d2fA00.pdb
 106 101 0 0 0
SMALL
GASTEIGER

@<TRIPOS>ATOM
      1  N         18.2780   48.0500   44.4430 N.3    12  ILE12      -0.1231
      2  CA        18.9590   47.3170   43.4010 C.3    12  ILE12       0.1692
      3  C         20.3080   46.9910   44.0240 C.2    12  ILE12       0.2592
      4  O         21.1020   47.8840   44.2880 O.2    12  ILE12      -0.2718
      5  CB        19.0710   48.1470   42.1030 C.3    12  ILE12       0.0266
      6  CG1       19.9120   47.3750   41.0880 C.3    12  ILE12       0.0019
      7  CG2       19.6280   49.5280   42.3820 C.3    12  ILE12       0.0020
      8  CD1       19.8460   47.9390   39.6900 C.3    12  ILE12       0.0001
      9  N         20.5260   45.7070   44.3130 N.am   13  ASP13      -0.1974
     10  CA        21.7480   45.2300   44.9570 C.3    13  ASP13       0.1709
     11  C         21.7520   45.5840   46.4420 C.2    13  ASP13       0.2293
     12  O         22.7960   45.9050   47.0160 O.2    13  ASP13      -0.2864
     13  CB        22.9770   45.8270   44.2890 C.3    13  ASP13       0.1436
     14  CG        23.2220   45.3530   42.9070 C.2    13  ASP13       0.3671
     15  OD1       22.7020   44.2660   42.5090 O.co2  13  ASP13      -0.2456
     16  OD2       24.0250   46.0230   42.1760 O.co2  13  ASP13      -0.2456
     17  N         21.0530   48.1110   47.6970 N.3    15  GLU15      -0.1245
     18  CA        21.1430   49.5620   47.7880 C.3    15  GLU15       0.1567
     19  C         19.7600   50.1540   47.5390 C.2    15  GLU15       0.2260
     20  O         19.1730   49.9360   46.4830 O.2    15  GLU15      -0.2867
     21  CB        22.1150   50.1180   46.7430 C.3    15  GLU15       0.0388
     22  CG        23.5010   49.5070   46.7860 C.3    15  GLU15       0.1160
     23  CD        24.0670   49.4500   48.1880 C.2    15  GLU15       0.3649
     24  OE1       23.9890   50.4640   48.9100 O.co2  15  GLU15      -0.2457
     25  OE2       24.6000   48.3890   48.5650 O.co2  15  GLU15      -0.2457
     26  N         17.3610   52.8590   46.4590 N.3    17  ILE17      -0.1245
     27  CA        17.4130   54.0340   45.6020 C.3    17  ILE17       0.1561
     28  C         16.1790   54.8970   45.8020 C.2    17  ILE17       0.2260
     29  O         16.2980   56.1080   46.0030 O.2    17  ILE17      -0.2867
     30  CB        17.5070   53.6640   44.1130 C.3    17  ILE17       0.0252
     31  CG1       18.7010   52.7410   43.8830 C.3    17  ILE17       0.0019
     32  CG2       17.6360   54.9330   43.2720 C.3    17  ILE17       0.0019
     33  CD1       19.9980   53.2730   44.4600 C.3    17  ILE17       0.0001
     34  N         19.8910   64.5550   39.6450 N.3    37  ASN37      -0.1225
     35  CA        20.5330   63.4460   38.9230 C.3    37  ASN37       0.1785
     36  C         21.0910   62.4910   39.9850 C.2    37  ASN37       0.2598
     37  O         21.9060   62.8820   40.8140 O.2    37  ASN37      -0.2718
     38  CB        21.6510   63.9540   38.0400 C.3    37  ASN37       0.1169
     39  CG        21.1740   64.3090   36.6440 C.2    37  ASN37       0.2627
     40  OD1       20.0190   64.7110   36.4300 O.2    37  ASN37      -0.2716
     41  ND2       22.0680   64.1650   35.6830 N.am   37  ASN37      -0.0877
     42  N         20.6340   61.2500   39.9650 N.am   38  GLY38      -0.1942
     43  CA        21.0650   60.3030   40.9770 C.3    38  GLY38       0.2014
     44  C         20.0750   60.3920   42.1310 C.2    38  GLY38       0.2639
     45  O         20.1410   59.6200   43.0870 O.2    38  GLY38      -0.2714
     46  N         19.1410   61.3390   42.0380 N.am   39  ALA39      -0.1963
     47  CA        18.1350   61.5130   43.0780 C.3    39  ALA39       0.1728
     48  C         17.0980   60.4160   42.9590 C.2    39  ALA39       0.2617
     49  O         16.2940   60.2130   43.8750 O.2    39  ALA39      -0.2715
     50  CB        17.4620   62.8770   42.9440 C.3    39  ALA39       0.0334
     51  N         17.1030   59.7290   41.8180 N.am   40  GLY40      -0.1940
     52  CA        16.1690   58.6320   41.6100 C.3    40  GLY40       0.2014
     53  C         15.0560   58.8440   40.5920 C.2    40  GLY40       0.2639
     54  O         14.1870   57.9870   40.4390 O.2    40  GLY40      -0.2714
     55  N         15.0640   59.9550   39.8660 N.am   41  LYS41      -0.1963
     56  CA        13.9610   60.1600   38.9310 C.3    41  LYS41       0.1728
     57  C         13.9310   59.1920   37.7490 C.2    41  LYS41       0.2617
     58  O         12.8600   58.6930   37.3890 O.2    41  LYS41      -0.2715
     59  CB        13.9260   61.6130   38.4540 C.3    41  LYS41       0.0311
     60  CG        15.2000   62.1120   37.8470 C.3    41  LYS41       0.0038
     61  CD        15.0950   63.6110   37.5490 C.3    41  LYS41       0.0206
     62  CE        16.3780   64.1120   36.9090 C.3    41  LYS41       0.1093
     63  NZ        17.5590   63.7520   37.7340 N.3    41  LYS41      -0.1314
     64  N         15.0790   58.9070   37.1400 N.am   42  SER42      -0.1936
     65  CA        15.0700   57.9790   36.0170 C.3    42  SER42       0.2055
     66  C         14.8270   56.5530   36.5070 C.2    42  SER42       0.2643
     67  O         14.3120   55.7260   35.7520 O.2    42  SER42      -0.2714
     68  CB        16.3700   58.0690   35.1970 C.3    42  SER42       0.2130
     69  OG        16.4890   59.3550   34.5850 O.3    42  SER42      -0.2179
     70  N         15.1940   56.2710   37.7640 N.am   43  THR43      -0.1950
     71  CA        14.9460   54.9530   38.3720 C.3    43  THR43       0.1897
     72  C         13.4310   54.7670   38.5000 C.2    43  THR43       0.2313
     73  O         12.9050   53.6920   38.2280 O.2    43  THR43      -0.2863
     74  CB        15.5710   54.8420   39.7800 C.3    43  THR43       0.1794
     75  OG1       16.9930   54.8780   39.6630 O.3    43  THR43      -0.2208
     76  CG2       15.1930   53.5190   40.4610 C.3    43  THR43       0.0378
     77  N         12.1430   53.7330   35.2210 N.3    46  LYS46      -0.1245
     78  CA        12.3810   52.3320   34.8880 C.3    46  LYS46       0.1561
     79  C         11.4770   51.3920   35.6790 C.2    46  LYS46       0.2260
     80  O         11.0690   50.3490   35.1730 O.2    46  LYS46      -0.2867
     81  CB        13.8490   51.9570   35.1370 C.3    46  LYS46       0.0271
     82  CG        14.8430   52.7800   34.3520 C.3    46  LYS46       0.0035
     83  CD        16.2550   52.4450   34.7830 C.3    46  LYS46       0.0206
     84  CE        17.2660   53.1200   33.8810 C.3    46  LYS46       0.1093
     85  NZ        18.6450   52.7420   34.2950 N.3    46  LYS46      -0.1314
     86  N         15.3320   44.4470   36.8900 N.3    53  GLU53      -0.1231
     87  CA        16.5380   44.5760   37.7080 C.3    53  GLU53       0.1699
     88  C         16.2910   45.2050   39.0700 C.2    53  GLU53       0.2592
     89  O         17.1400   45.1260   39.9540 O.2    53  GLU53      -0.2718
     90  CB        17.6000   45.4050   36.9890 C.3    53  GLU53       0.0402
     91  CG        18.1910   44.7440   35.7650 C.3    53  GLU53       0.1161
     92  CD        19.5150   45.3570   35.3820 C.2    53  GLU53       0.3649
     93  OE1       19.6800   45.7250   34.2040 O.co2  53  GLU53      -0.2457
     94  OE2       20.3970   45.4670   36.2610 O.co2  53  GLU53      -0.2457
     95  N         15.1370   45.8380   39.2410 N.am   54  TYR54      -0.1976
     96  CA        14.8320   46.4940   40.5010 C.3    54  TYR54       0.1639
     97  C         13.9190   45.6920   41.4040 C.2    54  TYR54       0.2290
     98  O         13.0610   44.9370   40.9420 O.2    54  TYR54      -0.2864
     99  CB        14.1960   47.8730   40.2500 C.3    54  TYR54       0.0560
    100  CG        15.1270   48.8650   39.5960 C.ar   54  TYR54      -0.0198
    101  CD1       15.1690   49.0080   38.2130 C.ar   54  TYR54      -0.0009
    102  CD2       16.0130   49.6270   40.3630 C.ar   54  TYR54      -0.0009
    103  CE1       16.0680   49.8800   37.6140 C.ar   54  TYR54       0.0417
    104  CE2       16.9210   50.5020   39.7620 C.ar   54  TYR54       0.0417
    105  CZ        16.9390   50.6170   38.3970 C.ar   54  TYR54       0.1957
    106  OH        17.8490   51.4530   37.8020 O.3    54  TYR54      -0.2866
@<TRIPOS>BOND
     1    84    85    1
     2    84    83    1
     3    93    92   ar
     4    82    83    1
     5    82    81    1
     6    69    68    1
     7    78    81    1
     8    78    77    1
     9    78    79    1
    10    80    79    2
    11    68    65    1
    12    92    91    1
    13    92    94   ar
    14    41    39   am
    15    67    66    2
    16    91    90    1
    17    65    66    1
    18    65    64    1
    19    40    39    2
    20    66    70   am
    21    39    38    1
    22    86    87    1
    23    62    61    1
    24    62    63    1
    25    90    87    1
    26    64    57   am
    27    58    57    2
    28    61    60    1
    29   103   101   ar
    30   103   105   ar
    31    87    88    1
    32    57    56    1
    33    70    71    1
    34   106   105    1
    35    60    59    1
    36    38    35    1
    37   101   100   ar
    38    73    72    2
    39    71    72    1
    40    71    74    1
    41   105   104   ar
    42    59    56    1
    43    35    34    1
    44    35    36    1
    45    56    55    1
    46    88    95   am
    47    88    89    2
    48    95    96    1
    49   100    99    1
    50   100   102   ar
    51    75    74    1
    52     8     6    1
    53   104   102   ar
    54    74    76    1
    55    55    53   am
    56    42    36   am
    57    42    43    1
    58    36    37    2
    59    99    96    1
    60    54    53    2
    61    96    97    1
    62    53    52    1
    63    98    97    2
    64    43    44    1
    65     6     5    1
    66    52    51    1
    67    51    48   am
    68    46    44   am
    69    46    47    1
    70     5     7    1
    71     5     2    1
    72    44    45    2
    73    16    14   ar
    74    15    14   ar
    75    14    13    1
    76    50    47    1
    77    48    47    1
    78    48    49    2
    79    32    30    1
    80     2     3    1
    81     2     1    1
    82    31    30    1
    83    31    33    1
    84     3     4    2
    85     3     9   am
    86    30    27    1
    87    13    10    1
    88     9    10    1
    89    10    11    1
    90    27    28    1
    91    27    26    1
    92    28    29    2
    93    11    12    2
    94    20    19    2
    95    21    22    1
    96    21    18    1
    97    22    23    1
    98    19    18    1
    99    17    18    1
   100    23    25   ar
   101    23    24   ar
