@<TRIPOS>MOLECULE
tmp/2d2gA00.pdb
 141 136 0 0 0
SMALL
GASTEIGER

@<TRIPOS>ATOM
      1  N         37.4550   22.0880   -8.0410 N.3    23  HIS23      -0.1241
      2  CA        36.2130   22.0750   -7.2350 C.3    23  HIS23       0.1621
      3  C         36.5520   22.3490   -5.7750 C.2    23  HIS23       0.2264
      4  O         36.9810   21.4360   -5.0380 O.2    23  HIS23      -0.2867
      5  CB        35.4530   20.7240   -7.3860 C.3    23  HIS23       0.0745
      6  CG        34.1110   20.6970   -6.7030 C.ar   23  HIS23       0.0817
      7  ND1       32.9640   20.2550   -7.3260 N.ar   23  HIS23      -0.2268
      8  CD2       33.7360   21.0780   -5.4540 C.ar   23  HIS23       0.1154
      9  CE1       31.9400   20.3620   -6.4940 C.ar   23  HIS23       0.1986
     10  NE2       32.3790   20.8650   -5.3520 N.ar   23  HIS23      -0.2212
     11  N         35.7390   25.4960   -2.3260 N.3    25  HIS25      -0.1241
     12  CA        34.8820   26.5740   -1.7840 C.3    25  HIS25       0.1621
     13  C         35.6750   27.4190   -0.7990 C.2    25  HIS25       0.2264
     14  O         36.3980   26.8860    0.0240 O.2    25  HIS25      -0.2867
     15  CB        33.6620   25.9880   -1.0460 C.3    25  HIS25       0.0745
     16  CG        32.8490   25.0520   -1.8820 C.ar   25  HIS25       0.0817
     17  ND1       31.8270   25.4840   -2.6970 N.ar   25  HIS25      -0.2268
     18  CD2       32.9220   23.7070   -2.0440 C.ar   25  HIS25       0.1154
     19  CE1       31.3010   24.4440   -3.3290 C.ar   25  HIS25       0.1986
     20  NE2       31.9560   23.3550   -2.9580 N.ar   25  HIS25      -0.2212
     21  N         31.0400   27.3590    2.2070 N.3    28  GLY28      -0.1225
     22  CA        29.7900   26.6680    1.8270 C.3    28  GLY28       0.1811
     23  C         28.6500   27.1730    2.7170 C.2    28  GLY28       0.2280
     24  O         28.5680   26.8470    3.9030 O.2    28  GLY28      -0.2866
     25  N         24.7450   28.4460   -2.7740 N.3    74  ILE74      -0.1245
     26  CA        25.8210   28.0860   -1.8140 C.3    74  ILE74       0.1561
     27  C         26.2790   29.3650   -1.0700 C.2    74  ILE74       0.2260
     28  O         27.1940   29.3470   -0.2270 O.2    74  ILE74      -0.2867
     29  CB        26.9890   27.3130   -2.5250 C.3    74  ILE74       0.0252
     30  CG1       26.4420   26.0020   -3.1020 C.3    74  ILE74       0.0019
     31  CG2       28.1560   26.9970   -1.5400 C.3    74  ILE74       0.0019
     32  CD1       27.4130   25.2400   -4.0140 C.3    74  ILE74       0.0001
     33  N         22.9570   25.0160   -7.3430 N.3    99  TRP99      -0.1227
     34  CA        23.2180   23.7870   -6.6010 C.3    99  TRP99       0.1737
     35  C         21.8400   23.2440   -6.1880 C.2    99  TRP99       0.2595
     36  O         20.8350   23.5600   -6.8320 O.2    99  TRP99      -0.2718
     37  CB        24.1020   24.2010   -5.4090 C.3    99  TRP99       0.0564
     38  CG        24.6340   23.1980   -4.4320 C.ar   99  TRP99       0.0003
     39  CD1       25.4880   22.1420   -4.6710 C.ar   99  TRP99       0.0946
     40  CD2       24.4260   23.2350   -3.0220 C.ar   99  TRP99       0.0152
     41  NE1       25.8090   21.5170   -3.4690 N.ar   99  TRP99      -0.2442
     42  CE2       25.1570   22.1660   -2.4510 C.ar   99  TRP99       0.0810
     43  CE3       23.6700   24.0670   -2.1760 C.ar   99  TRP99       0.0012
     44  CZ2       25.1570   21.9190   -1.0690 C.ar   99  TRP99       0.0191
     45  CZ3       23.6690   23.8200   -0.8010 C.ar   99  TRP99       0.0001
     46  CH2       24.4060   22.7560   -0.2630 C.ar   99  TRP99       0.0015
     47  N         21.7760   22.4470   -5.1220 N.am  100  PHE100     -0.1976
     48  CA        20.5120   21.7950   -4.7660 C.3   100  PHE100      0.1639
     49  C         19.7230   22.4610   -3.6240 C.2   100  PHE100      0.2290
     50  O         18.8370   21.8410   -3.0080 O.2   100  PHE100     -0.2864
     51  CB        20.7150   20.2750   -4.5700 C.3   100  PHE100      0.0560
     52  CG        21.6820   19.9040   -3.4730 C.ar  100  PHE100     -0.0200
     53  CD1       21.3330   20.0420   -2.1300 C.ar  100  PHE100     -0.0042
     54  CD2       22.9390   19.3730   -3.7850 C.ar  100  PHE100     -0.0042
     55  CE1       22.2420   19.6720   -1.1020 C.ar  100  PHE100     -0.0003
     56  CE2       23.8460   19.0040   -2.7840 C.ar  100  PHE100     -0.0003
     57  CZ        23.4980   19.1490   -1.4400 C.ar  100  PHE100     -0.0000
     58  N         27.6140   18.4810   -9.3210 N.3   168  HIS168     -0.1241
     59  CA        27.4840   17.6800   -8.1190 C.3   168  HIS168      0.1621
     60  C         26.6740   16.4560   -8.5400 C.2   168  HIS168      0.2264
     61  O         25.6600   16.5950   -9.2510 O.2   168  HIS168     -0.2867
     62  CB        26.7020   18.4400   -7.0490 C.3   168  HIS168      0.0745
     63  CG        26.3860   17.6240   -5.8240 C.ar  168  HIS168      0.0817
     64  ND1       27.0520   17.7800   -4.6280 N.ar  168  HIS168     -0.2268
     65  CD2       25.4410   16.6690   -5.6080 C.ar  168  HIS168      0.1154
     66  CE1       26.5610   16.9300   -3.7390 C.ar  168  HIS168      0.1986
     67  NE2       25.5770   16.2490   -4.3090 N.ar  168  HIS168     -0.2212
     68  N         32.1630   14.7360   -8.0300 N.3   197  HIS197     -0.1241
     69  CA        32.0550   13.7510   -6.9310 C.3   197  HIS197      0.1621
     70  C         32.1640   12.3250   -7.4210 C.2   197  HIS197      0.2264
     71  O         31.6540   11.4110   -6.7880 O.2   197  HIS197     -0.2867
     72  CB        30.7820   13.9600   -6.1070 C.3   197  HIS197      0.0745
     73  CG        30.6420   15.3580   -5.6140 C.ar  197  HIS197      0.0817
     74  ND1       31.7380   16.1680   -5.3860 N.ar  197  HIS197     -0.2268
     75  CD2       29.5510   16.0980   -5.3090 C.ar  197  HIS197      0.1154
     76  CE1       31.3220   17.3460   -4.9570 C.ar  197  HIS197      0.1986
     77  NE2       30.0010   17.3360   -4.9210 N.ar  197  HIS197     -0.2212
     78  N         36.8960   14.9070   -4.1190 N.3   221  ARG221     -0.1245
     79  CA        36.7110   14.8800   -2.6760 C.3   221  ARG221      0.1563
     80  C         37.8500   14.1070   -1.9980 C.2   221  ARG221      0.2260
     81  O         37.6360   13.3650   -1.0500 O.2   221  ARG221     -0.2867
     82  CB        35.3310   14.2890   -2.3340 C.3   221  ARG221      0.0307
     83  CG        34.1830   15.2360   -2.6020 C.3   221  ARG221      0.0489
     84  CD        32.8240   14.6610   -2.1080 C.3   221  ARG221      0.2205
     85  NE        31.9170   15.7400   -1.6960 N.pl3 221  ARG221     -0.0865
     86  CZ        30.6010   15.6070   -1.5180 C.cat 221  ARG221      0.5346
     87  NH1       29.9920   14.4360   -1.7280 N.pl3 221  ARG221      0.1354
     88  NH2       29.8790   16.6620   -1.1420 N.pl3 221  ARG221      0.1354
     89  N         38.2000   13.3580    1.9080 N.3   224  TYR224     -0.1241
     90  CA        36.9560   13.0180    2.6020 C.3   224  TYR224      0.1605
     91  C         36.9640   11.5820    3.1270 C.2   224  TYR224      0.2264
     92  O         36.8160   10.6450    2.3480 O.2   224  TYR224     -0.2867
     93  CB        35.7340   13.2050    1.6710 C.3   224  TYR224      0.0534
     94  CG        35.1940   14.6250    1.5960 C.ar  224  TYR224     -0.0201
     95  CD1       36.0400   15.7010    1.3240 C.ar  224  TYR224     -0.0009
     96  CD2       33.8240   14.8800    1.7520 C.ar  224  TYR224     -0.0009
     97  CE1       35.5560   17.0140    1.2430 C.ar  224  TYR224      0.0417
     98  CE2       33.3190   16.1960    1.6880 C.ar  224  TYR224      0.0417
     99  CZ        34.2010   17.2520    1.4310 C.ar  224  TYR224      0.1957
    100  OH        33.7370   18.5470    1.3700 O.3   224  TYR224     -0.2866
    101  N         28.4580   12.4550    5.3420 N.3   238  LEU238     -0.1245
    102  CA        29.0820   13.4050    4.4180 C.3   238  LEU238      0.1561
    103  C         30.3960   12.8820    3.8570 C.2   238  LEU238      0.2260
    104  O         30.6440   13.0000    2.6520 O.2   238  LEU238     -0.2867
    105  CB        29.3080   14.7660    5.0840 C.3   238  LEU238      0.0270
    106  CG        30.0060   15.8130    4.1910 C.3   238  LEU238      0.0019
    107  CD1       29.2200   16.0630    2.8910 C.3   238  LEU238      0.0001
    108  CD2       30.2790   17.1070    4.9340 C.3   238  LEU238      0.0001
    109  N         37.1420   19.5870   -2.6980 N.3   268  ASP268     -0.1239
    110  CA        35.8320   20.0550   -2.2320 C.3   268  ASP268      0.1674
    111  C         35.9930   20.6190   -0.8130 C.2   268  ASP268      0.2266
    112  O         35.1410   20.4090    0.0760 O.2   268  ASP268     -0.2867
    113  CB        34.7920   18.9120   -2.3010 C.3   268  ASP268      0.1410
    114  CG        33.3640   19.3940   -2.1680 C.2   268  ASP268      0.3668
    115  OD1       33.1160   20.6080   -2.3650 O.co2 268  ASP268     -0.2456
    116  OD2       32.4840   18.5580   -1.8550 O.co2 268  ASP268     -0.2456
    117  N         36.6590   23.6750    2.1540 N.3   270  LEU270     -0.1245
    118  CA        36.1580   25.0250    2.4830 C.3   270  LEU270      0.1561
    119  C         36.7500   25.5440    3.7890 C.2   270  LEU270      0.2260
    120  O         37.3580   24.7780    4.5550 O.2   270  LEU270     -0.2867
    121  CB        34.6210   25.0750    2.5420 C.3   270  LEU270      0.0270
    122  CG        33.8200   23.8320    2.8270 C.3   270  LEU270      0.0019
    123  CD1       34.0050   23.5050    4.3180 C.3   270  LEU270      0.0001
    124  CD2       32.3460   24.0850    2.4610 C.3   270  LEU270      0.0001
    125  N         31.4660   26.7370    6.7790 N.3   273  PHE273     -0.1241
    126  CA        30.5080   25.7160    6.3420 C.3   273  PHE273      0.1605
    127  C         29.2670   25.8250    7.2020 C.2   273  PHE273      0.2264
    128  O         29.2180   25.2650    8.3140 O.2   273  PHE273     -0.2867
    129  CB        31.1480   24.3080    6.4870 C.3   273  PHE273      0.0534
    130  CG        30.4870   23.2130    5.6670 C.ar  273  PHE273     -0.0203
    131  CD1       29.2970   23.4340    4.9470 C.ar  273  PHE273     -0.0042
    132  CD2       31.0440   21.9340    5.6530 C.ar  273  PHE273     -0.0042
    133  CE1       28.7010   22.4080    4.2140 C.ar  273  PHE273     -0.0003
    134  CE2       30.4500   20.8930    4.9220 C.ar  273  PHE273     -0.0003
    135  CZ        29.2770   21.1390    4.1960 C.ar  273  PHE273     -0.0000
    136  N         25.9760   25.4220    5.8590 N.3   275  SER275     -0.1217
    137  CA        24.8900   24.5770    5.2950 C.3   275  SER275      0.1889
    138  C         24.8710   23.1270    5.8020 C.2   275  SER275      0.2288
    139  O         24.1560   22.2860    5.2540 O.2   275  SER275     -0.2866
    140  CB        24.9380   24.5830    3.7640 C.3   275  SER275      0.2089
    141  OG        26.2580   24.2770    3.3260 O.3   275  SER275     -0.2183
@<TRIPOS>BOND
     1    58    59    1
     2    61    60    2
     3    60    59    1
     4    59    62    1
     5     1     2    1
     6    68    69    1
     7    70    69    1
     8    70    71    2
     9     5     2    1
    10     5     6    1
    11    33    34    1
    12     7     6   ar
    13     7     9   ar
    14     2     3    1
    15    62    63    1
    16    69    72    1
    17    36    35    2
    18     6     8   ar
    19    34    35    1
    20    34    37    1
    21     9    10   ar
    22    35    47   am
    23    72    73    1
    24    63    65   ar
    25    63    64   ar
    26     3     4    2
    27    73    74   ar
    28    73    75   ar
    29    65    67   ar
    30     8    10   ar
    31    37    38    1
    32    74    76   ar
    33    75    77   ar
    34    47    48    1
    35    76    77   ar
    36    48    51    1
    37    48    49    1
    38    39    38   ar
    39    39    41   ar
    40    64    66   ar
    41    51    52    1
    42    38    40   ar
    43    67    66   ar
    44    78    79    1
    45    32    30    1
    46    54    52   ar
    47    54    56   ar
    48    49    50    2
    49    52    53   ar
    50    41    42   ar
    51    19    20   ar
    52    19    17   ar
    53    30    29    1
    54    40    42   ar
    55    40    43   ar
    56    20    18   ar
    57    56    57   ar
    58    25    26    1
    59   109   110    1
    60    17    16   ar
    61    79    82    1
    62    79    80    1
    63    83    82    1
    64    83    84    1
    65    29    26    1
    66    29    31    1
    67    42    44   ar
    68   115   114   ar
    69    11    12    1
    70   113   110    1
    71   113   114    1
    72   110   111    1
    73    43    45   ar
    74   114   116   ar
    75    53    55   ar
    76    84    85    1
    77    18    16   ar
    78    80    81    2
    79    16    15    1
    80    26    27    1
    81    12    15    1
    82    12    13    1
    83    87    86    1
    84    85    86    2
    85    86    88    1
    86    57    55   ar
    87    27    28    2
    88    44    46   ar
    89   111   112    2
    90    45    46   ar
    91    13    14    2
    92    97    95   ar
    93    97    99   ar
    94    95    94   ar
    95   100    99    1
    96    99    98   ar
    97    94    93    1
    98    94    96   ar
    99    93    90    1
   100    98    96   ar
   101    22    21    1
   102    22    23    1
   103    89    90    1
   104   117   118    1
   105    92    91    2
   106   124   122    1
   107   118   121    1
   108   118   119    1
   109   121   122    1
   110    90    91    1
   111   104   103    2
   112    23    24    2
   113   122   123    1
   114   107   106    1
   115   141   140    1
   116   140   137    1
   117   119   120    2
   118   103   102    1
   119   106   108    1
   120   106   105    1
   121   135   133   ar
   122   135   134   ar
   123   133   131   ar
   124   102   105    1
   125   102   101    1
   126   134   132   ar
   127   131   130   ar
   128   139   138    2
   129   137   138    1
   130   137   136    1
   131   132   130   ar
   132   130   129    1
   133   126   129    1
   134   126   125    1
   135   126   127    1
   136   127   128    2
