@<TRIPOS>MOLECULE
tmp/2d2hA00.pdb
 159 155 0 0 0
SMALL
GASTEIGER

@<TRIPOS>ATOM
      1  N         37.4020   22.0700   -8.0500 N.3    23  HIS23      -0.1241
      2  CA        36.1590   22.0290   -7.2510 C.3    23  HIS23       0.1621
      3  C         36.4920   22.3100   -5.7930 C.2    23  HIS23       0.2264
      4  O         36.8710   21.4040   -5.0400 O.2    23  HIS23      -0.2867
      5  CB        35.4300   20.6740   -7.3990 C.3    23  HIS23       0.0745
      6  CG        34.0710   20.6540   -6.7710 C.ar   23  HIS23       0.0817
      7  ND1       32.9340   20.2770   -7.4520 N.ar   23  HIS23      -0.2268
      8  CD2       33.6680   20.9910   -5.5220 C.ar   23  HIS23       0.1154
      9  CE1       31.8870   20.3740   -6.6460 C.ar   23  HIS23       0.1986
     10  NE2       32.3070   20.8020   -5.4700 N.ar   23  HIS23      -0.2212
     11  N         35.7080   25.4860   -2.4080 N.3    25  HIS25      -0.1241
     12  CA        34.8540   26.5850   -1.9050 C.3    25  HIS25       0.1621
     13  C         35.6340   27.3910   -0.8730 C.2    25  HIS25       0.2264
     14  O         36.3690   26.8310   -0.0620 O.2    25  HIS25      -0.2867
     15  CB        33.5920   26.0480   -1.2090 C.3    25  HIS25       0.0745
     16  CG        32.7830   25.0960   -2.0270 C.ar   25  HIS25       0.0817
     17  ND1       31.7650   25.5140   -2.8500 N.ar   25  HIS25      -0.2268
     18  CD2       32.8410   23.7440   -2.1480 C.ar   25  HIS25       0.1154
     19  CE1       31.2150   24.4630   -3.4380 C.ar   25  HIS25       0.1986
     20  NE2       31.8600   23.3750   -3.0400 N.ar   25  HIS25      -0.2212
     21  N         31.0110   27.3270    2.3080 N.3    28  GLY28      -0.1210
     22  CA        29.7600   26.6470    1.9350 C.3    28  GLY28       0.1956
     23  C         28.6330   27.1590    2.8230 C.2    28  GLY28       0.2612
     24  O         28.5690   26.8690    4.0390 O.2    28  GLY28      -0.2717
     25  N         27.7450   27.9450    2.2300 N.am   29  SER29      -0.1952
     26  CA        26.7600   28.6770    3.0230 C.3    29  SER29       0.1924
     27  C         25.4750   28.7630    2.2240 C.2    29  SER29       0.2314
     28  O         25.1400   27.8500    1.4420 O.2    29  SER29      -0.2863
     29  CB        27.3030   30.0770    3.4090 C.3    29  SER29       0.2116
     30  OG        26.4310   30.8050    4.2830 O.3    29  SER29      -0.2180
     31  N         24.7160   28.4910   -2.7760 N.3    74  ILE74      -0.1245
     32  CA        25.7800   28.1260   -1.8270 C.3    74  ILE74       0.1561
     33  C         26.2500   29.3760   -1.0540 C.2    74  ILE74       0.2260
     34  O         27.1640   29.3240   -0.2340 O.2    74  ILE74      -0.2867
     35  CB        26.9510   27.3850   -2.5600 C.3    74  ILE74       0.0252
     36  CG1       26.4140   26.0800   -3.1690 C.3    74  ILE74       0.0019
     37  CG2       28.1590   27.1120   -1.6050 C.3    74  ILE74       0.0019
     38  CD1       27.4240   25.2960   -3.9900 C.3    74  ILE74       0.0001
     39  N         22.9400   25.1060   -7.3040 N.3    99  TRP99      -0.1227
     40  CA        23.2350   23.8710   -6.5770 C.3    99  TRP99       0.1737
     41  C         21.8670   23.3010   -6.1740 C.2    99  TRP99       0.2595
     42  O         20.8600   23.6300   -6.8070 O.2    99  TRP99      -0.2718
     43  CB        24.0950   24.2620   -5.3720 C.3    99  TRP99       0.0564
     44  CG        24.6350   23.2280   -4.4300 C.ar   99  TRP99       0.0003
     45  CD1       25.4690   22.1660   -4.7110 C.ar   99  TRP99       0.0946
     46  CD2       24.4470   23.2270   -3.0200 C.ar   99  TRP99       0.0152
     47  NE1       25.7920   21.4990   -3.5410 N.ar   99  TRP99      -0.2442
     48  CE2       25.1710   22.1310   -2.4950 C.ar   99  TRP99       0.0810
     49  CE3       23.7190   24.0520   -2.1390 C.ar   99  TRP99       0.0012
     50  CZ2       25.2020   21.8430   -1.1310 C.ar   99  TRP99       0.0191
     51  CZ3       23.7450   23.7580   -0.7750 C.ar   99  TRP99       0.0001
     52  CH2       24.4870   22.6580   -0.2910 C.ar   99  TRP99       0.0015
     53  N         21.8060   22.4810   -5.1260 N.am  100  PHE100     -0.1976
     54  CA        20.5440   21.8050   -4.8170 C.3   100  PHE100      0.1639
     55  C         19.7440   22.4740   -3.6860 C.2   100  PHE100      0.2290
     56  O         18.8620   21.8520   -3.1000 O.2   100  PHE100     -0.2864
     57  CB        20.7270   20.2730   -4.6160 C.3   100  PHE100      0.0560
     58  CG        21.6430   19.8890   -3.4910 C.ar  100  PHE100     -0.0200
     59  CD1       21.2290   19.9960   -2.1580 C.ar  100  PHE100     -0.0042
     60  CD2       22.9210   19.3880   -3.7600 C.ar  100  PHE100     -0.0042
     61  CE1       22.1050   19.6350   -1.1000 C.ar  100  PHE100     -0.0003
     62  CE2       23.7970   19.0100   -2.7140 C.ar  100  PHE100     -0.0003
     63  CZ        23.3880   19.1420   -1.3900 C.ar  100  PHE100     -0.0000
     64  N         27.5180   18.5120   -9.3120 N.3   168  HIS168     -0.1241
     65  CA        27.4270   17.7100   -8.1210 C.3   168  HIS168      0.1621
     66  C         26.6290   16.4840   -8.5610 C.2   168  HIS168      0.2264
     67  O         25.6140   16.6230   -9.2880 O.2   168  HIS168     -0.2867
     68  CB        26.6330   18.4580   -7.0470 C.3   168  HIS168      0.0745
     69  CG        26.3250   17.6390   -5.8290 C.ar  168  HIS168      0.0817
     70  ND1       27.0390   17.7470   -4.6590 N.ar  168  HIS168     -0.2268
     71  CD2       25.3620   16.7110   -5.5970 C.ar  168  HIS168      0.1154
     72  CE1       26.5560   16.9000   -3.7680 C.ar  168  HIS168      0.1986
     73  NE2       25.5360   16.2590   -4.3110 N.ar  168  HIS168     -0.2212
     74  N         32.1610   14.7370   -8.0570 N.3   197  HIS197     -0.1241
     75  CA        32.0610   13.7680   -6.9370 C.3   197  HIS197      0.1621
     76  C         32.1280   12.3360   -7.4140 C.2   197  HIS197      0.2264
     77  O         31.5900   11.4350   -6.7800 O.2   197  HIS197     -0.2867
     78  CB        30.8200   13.9930   -6.0700 C.3   197  HIS197      0.0745
     79  CG        30.6610   15.4100   -5.6470 C.ar  197  HIS197      0.0817
     80  ND1       31.7480   16.2400   -5.4300 N.ar  197  HIS197     -0.2268
     81  CD2       29.5570   16.1600   -5.4310 C.ar  197  HIS197      0.1154
     82  CE1       31.3090   17.4350   -5.0800 C.ar  197  HIS197      0.1986
     83  NE2       29.9870   17.4170   -5.0900 N.ar  197  HIS197     -0.2212
     84  N         36.8660   14.8920   -4.1720 N.3   221  ARG221     -0.1245
     85  CA        36.6670   14.8470   -2.7130 C.3   221  ARG221      0.1563
     86  C         37.8010   14.1020   -2.0070 C.2   221  ARG221      0.2260
     87  O         37.5830   13.3990   -1.0280 O.2   221  ARG221     -0.2867
     88  CB        35.2770   14.2640   -2.3820 C.3   221  ARG221      0.0307
     89  CG        34.1780   15.2060   -2.7890 C.3   221  ARG221      0.0489
     90  CD        32.8140   14.5700   -2.6690 C.3   221  ARG221      0.2205
     91  NE        32.5530   14.0580   -1.3280 N.pl3 221  ARG221     -0.0865
     92  CZ        32.2160   14.8150   -0.2870 C.cat 221  ARG221      0.5346
     93  NH1       32.0970   16.1270   -0.4190 N.pl3 221  ARG221      0.1354
     94  NH2       31.9860   14.2600    0.8890 N.pl3 221  ARG221      0.1354
     95  N         38.2520   13.4120    1.9610 N.3   224  TYR224     -0.1241
     96  CA        37.0340   13.0680    2.6880 C.3   224  TYR224      0.1605
     97  C         36.9980   11.6170    3.1420 C.2   224  TYR224      0.2264
     98  O         36.8480   10.7110    2.3260 O.2   224  TYR224     -0.2867
     99  CB        35.8000   13.3710    1.8440 C.3   224  TYR224      0.0534
    100  CG        35.3950   14.8300    1.8990 C.ar  224  TYR224     -0.0201
    101  CD1       35.9080   15.7470    0.9980 C.ar  224  TYR224     -0.0009
    102  CD2       34.4940   15.2840    2.8660 C.ar  224  TYR224     -0.0009
    103  CE1       35.5270   17.0930    1.0410 C.ar  224  TYR224      0.0417
    104  CE2       34.1040   16.6300    2.9220 C.ar  224  TYR224      0.0417
    105  CZ        34.6350   17.5220    1.9960 C.ar  224  TYR224      0.1957
    106  OH        34.2490   18.8440    2.0460 O.3   224  TYR224     -0.2866
    107  N         28.5210   12.5260    5.5560 N.3   238  LEU238     -0.1245
    108  CA        29.0520   13.3810    4.5050 C.3   238  LEU238      0.1561
    109  C         30.4270   12.9170    4.0210 C.2   238  LEU238      0.2260
    110  O         30.6970   12.9990    2.8250 O.2   238  LEU238     -0.2867
    111  CB        29.0410   14.8580    4.9020 C.3   238  LEU238      0.0270
    112  CG        30.3020   15.4860    5.4790 C.3   238  LEU238      0.0019
    113  CD1       30.3850   16.9660    5.1010 C.3   238  LEU238      0.0001
    114  CD2       30.3110   15.2760    6.9810 C.3   238  LEU238      0.0001
    115  N         37.1050   19.5680   -2.7350 N.3   268  ASP268     -0.1239
    116  CA        35.7930   20.0540   -2.2690 C.3   268  ASP268      0.1674
    117  C         35.9150   20.5780   -0.8240 C.2   268  ASP268      0.2266
    118  O         35.0730   20.2990    0.0720 O.2   268  ASP268     -0.2867
    119  CB        34.7340   18.9370   -2.4010 C.3   268  ASP268      0.1410
    120  CG        33.3130   19.4460   -2.2640 C.2   268  ASP268      0.3668
    121  OD1       33.0870   20.6640   -2.4850 O.co2 268  ASP268     -0.2456
    122  OD2       32.4280   18.6300   -1.9140 O.co2 268  ASP268     -0.2456
    123  N         36.6870   23.7180    2.1450 N.3   270  LEU270     -0.1245
    124  CA        36.1780   25.0540    2.4800 C.3   270  LEU270      0.1561
    125  C         36.7590   25.5240    3.8010 C.2   270  LEU270      0.2260
    126  O         37.4030   24.7500    4.5120 O.2   270  LEU270     -0.2867
    127  CB        34.6410   25.0750    2.5450 C.3   270  LEU270      0.0270
    128  CG        33.8680   23.8350    2.9760 C.3   270  LEU270      0.0019
    129  CD1       34.1750   23.4500    4.4310 C.3   270  LEU270      0.0001
    130  CD2       32.3650   24.0870    2.7530 C.3   270  LEU270      0.0001
    131  N         31.5450   26.8040    6.8940 N.3   273  PHE273     -0.1241
    132  CA        30.5730   25.7930    6.4580 C.3   273  PHE273      0.1605
    133  C         29.2980   25.9040    7.2840 C.2   273  PHE273      0.2264
    134  O         29.2030   25.3350    8.3800 O.2   273  PHE273     -0.2867
    135  CB        31.2370   24.3930    6.5400 C.3   273  PHE273      0.0534
    136  CG        30.5090   23.2830    5.7970 C.ar  273  PHE273     -0.0203
    137  CD1       29.3500   23.5130    5.0210 C.ar  273  PHE273     -0.0042
    138  CD2       31.0350   21.9890    5.8320 C.ar  273  PHE273     -0.0042
    139  CE1       28.7160   22.4490    4.3630 C.ar  273  PHE273     -0.0003
    140  CE2       30.4050   20.9290    5.1830 C.ar  273  PHE273     -0.0003
    141  CZ        29.2510   21.1540    4.4390 C.ar  273  PHE273     -0.0000
    142  N         26.0150   25.4160    5.8890 N.3   275  SER275     -0.1202
    143  CA        24.9300   24.5650    5.3370 C.3   275  SER275      0.2020
    144  C         24.9250   23.1280    5.8600 C.2   275  SER275      0.2618
    145  O         24.2960   22.2550    5.2670 O.2   275  SER275     -0.2717
    146  CB        25.0110   24.5250    3.8180 C.3   275  SER275      0.2103
    147  OG        26.3450   24.2310    3.4550 O.3   275  SER275     -0.2182
    148  N         25.6200   22.8840    6.9660 N.am  276  TYR276     -0.1975
    149  CA        25.5860   21.5700    7.5850 C.3   276  TYR276      0.1639
    150  C         25.5830   21.7440    9.1070 C.2   276  TYR276      0.2290
    151  O         25.2830   22.8380    9.6070 O.2   276  TYR276     -0.2864
    152  CB        26.7680   20.7270    7.0780 C.3   276  TYR276      0.0560
    153  CG        26.5900   19.2200    7.2100 C.ar  276  TYR276     -0.0198
    154  CD1       25.4430   18.5830    6.7330 C.ar  276  TYR276     -0.0009
    155  CD2       27.5930   18.4350    7.7890 C.ar  276  TYR276     -0.0009
    156  CE1       25.2810   17.1850    6.8560 C.ar  276  TYR276      0.0417
    157  CE2       27.4500   17.0590    7.9100 C.ar  276  TYR276      0.0417
    158  CZ        26.3030   16.4360    7.4380 C.ar  276  TYR276      0.1957
    159  OH        26.1630   15.0700    7.5620 O.3   276  TYR276     -0.2866
@<TRIPOS>BOND
     1    64    65    1
     2    67    66    2
     3    66    65    1
     4    65    68    1
     5    74    75    1
     6     1     2    1
     7     7     6   ar
     8     7     9   ar
     9    76    75    1
    10    76    77    2
    11     5     2    1
    12     5     6    1
    13    39    40    1
    14     2     3    1
    15    68    69    1
    16    75    78    1
    17    42    41    2
    18     6     8   ar
    19     9    10   ar
    20    40    41    1
    21    40    43    1
    22    41    53   am
    23    78    79    1
    24    69    71   ar
    25    69    70   ar
    26     3     4    2
    27    79    81   ar
    28    79    80   ar
    29    71    73   ar
    30     8    10   ar
    31    81    83   ar
    32    80    82   ar
    33    43    44    1
    34    53    54    1
    35    83    82   ar
    36    54    57    1
    37    54    55    1
    38    45    44   ar
    39    45    47   ar
    40    70    72   ar
    41    57    58    1
    42    44    46   ar
    43    73    72   ar
    44    84    85    1
    45    38    36    1
    46    60    58   ar
    47    60    62   ar
    48    55    56    2
    49    47    48   ar
    50    58    59   ar
    51    19    20   ar
    52    19    17   ar
    53    36    35    1
    54    20    18   ar
    55    46    48   ar
    56    46    49   ar
    57    17    16   ar
    58    89    90    1
    59    89    88    1
    60    31    32    1
    61   115   116    1
    62    62    63   ar
    63    85    88    1
    64    85    86    1
    65    90    91    1
    66    35    32    1
    67    35    37    1
    68    48    50   ar
    69   121   120   ar
    70    11    12    1
    71   119   116    1
    72   119   120    1
    73   116   117    1
    74   120   122   ar
    75    59    61   ar
    76    18    16   ar
    77    49    51   ar
    78    16    15    1
    79    86    87    2
    80    12    15    1
    81    12    13    1
    82    32    33    1
    83    63    61   ar
    84    91    92    2
    85    50    52   ar
    86    33    34    2
    87    13    14    2
    88   117   118    2
    89    51    52   ar
    90    93    92    1
    91    92    94    1
    92   101   103   ar
    93   101   100   ar
    94   103   105   ar
    95    28    27    2
    96    99   100    1
    97    99    96    1
    98   100   102   ar
    99    22    21    1
   100    22    23    1
   101    95    96    1
   102   105   106    1
   103   105   104   ar
   104   123   124    1
   105    27    26    1
   106    25    23   am
   107    25    26    1
   108    98    97    2
   109   124   127    1
   110   124   125    1
   111   127   128    1
   112    96    97    1
   113   130   128    1
   114    23    24    2
   115   110   109    2
   116   102   104   ar
   117   128   129    1
   118    26    29    1
   119    29    30    1
   120   147   146    1
   121   125   126    2
   122   146   143    1
   123   109   108    1
   124   139   141   ar
   125   139   137   ar
   126   141   140   ar
   127   108   111    1
   128   108   107    1
   129   111   112    1
   130   137   136   ar
   131   113   112    1
   132   140   138   ar
   133   145   144    2
   134   143   144    1
   135   143   142    1
   136   112   114    1
   137   136   138   ar
   138   136   135    1
   139   144   148   am
   140   132   135    1
   141   132   131    1
   142   132   133    1
   143   154   156   ar
   144   154   153   ar
   145   156   158   ar
   146   148   149    1
   147   152   153    1
   148   152   149    1
   149   153   155   ar
   150   133   134    2
   151   158   159    1
   152   158   157   ar
   153   149   150    1
   154   155   157   ar
   155   150   151    2
