@<TRIPOS>MOLECULE
tmp/2d2iF00.pdb
 216 211 0 0 0
SMALL
GASTEIGER

@<TRIPOS>ATOM
      1  N        110.9600   59.6230   44.7070 N.3     8  ASN8       -0.1225
      2  CA       109.5300   59.9470   44.8360 C.3     8  ASN8        0.1785
      3  C        109.3520   61.0310   45.9120 C.2     8  ASN8        0.2598
      4  O        109.5270   60.7660   47.1140 O.2     8  ASN8       -0.2718
      5  CB       108.7460   58.6860   45.2220 C.3     8  ASN8        0.1169
      6  CG       107.2750   58.7560   44.8160 C.2     8  ASN8        0.2627
      7  OD1      106.9520   58.8930   43.6350 O.2     8  ASN8       -0.2716
      8  ND2      106.3840   58.6550   45.7950 N.am    8  ASN8       -0.0877
      9  N        108.9860   62.2420   45.4820 N.am    9  GLY9       -0.1942
     10  CA       108.8490   63.3690   46.4010 C.3     9  GLY9        0.2014
     11  C        110.1300   64.1970   46.3140 C.2     9  GLY9        0.2639
     12  O        111.0880   63.9280   47.0440 O.2     9  GLY9       -0.2714
     13  N        110.1570   65.1910   45.4210 N.am   10  PHE10      -0.1959
     14  CA       111.3580   66.0100   45.2240 C.3    10  PHE10       0.1771
     15  C        111.4340   67.2430   46.1370 C.2    10  PHE10       0.2620
     16  O        111.7100   68.3600   45.6990 O.2    10  PHE10      -0.2715
     17  CB       111.4640   66.4280   43.7550 C.3    10  PHE10       0.0574
     18  CG       112.8680   66.7440   43.3050 C.ar   10  PHE10      -0.0200
     19  CD1      113.9190   65.8650   43.5740 C.ar   10  PHE10      -0.0042
     20  CD2      113.1240   67.8820   42.5400 C.ar   10  PHE10      -0.0042
     21  CE1      115.2130   66.1070   43.0780 C.ar   10  PHE10      -0.0003
     22  CE2      114.4110   68.1390   42.0360 C.ar   10  PHE10      -0.0003
     23  CZ       115.4570   67.2470   42.3020 C.ar   10  PHE10      -0.0000
     24  N        111.1940   67.0230   47.4200 N.am   11  GLY11      -0.1940
     25  CA       111.2570   68.1030   48.3840 C.3    11  GLY11       0.2014
     26  C        112.6250   68.1910   49.0450 C.2    11  GLY11       0.2639
     27  O        113.6610   67.8370   48.4340 O.2    11  GLY11      -0.2714
     28  N        112.6290   68.6310   50.3030 N.am   12  ARG12      -0.1963
     29  CA       113.8790   68.8100   51.0170 C.3    12  ARG12       0.1729
     30  C        114.8250   67.6340   50.9470 C.2    12  ARG12       0.2616
     31  O        115.9470   67.7700   50.4420 O.2    12  ARG12      -0.2715
     32  CB       113.6250   69.2030   52.4850 C.3    12  ARG12       0.0348
     33  CG       112.9670   70.5990   52.6560 C.3    12  ARG12       0.0492
     34  CD       113.6390   71.6790   51.7850 C.3    12  ARG12       0.2205
     35  NE       115.0280   71.9340   52.1810 N.pl3  12  ARG12      -0.0865
     36  CZ       115.9400   72.5580   51.4260 C.cat  12  ARG12       0.5346
     37  NH1      115.6220   73.0110   50.2170 N.pl3  12  ARG12       0.1354
     38  NH2      117.1930   72.6840   51.8650 N.pl3  12  ARG12       0.1354
     39  N        114.3860   66.4800   51.4330 N.am   13  ILE13      -0.1963
     40  CA       115.2370   65.3000   51.4190 C.3    13  ILE13       0.1727
     41  C        115.4610   64.8210   50.0010 C.2    13  ILE13       0.2616
     42  O        116.5720   64.4280   49.6370 O.2    13  ILE13      -0.2715
     43  CB       114.6250   64.1630   52.2750 C.3    13  ILE13       0.0290
     44  CG1      114.4490   64.6520   53.7090 C.3    13  ILE13       0.0022
     45  CG2      115.5350   62.9370   52.2690 C.3    13  ILE13       0.0023
     46  CD1      115.7370   65.1830   54.3130 C.3    13  ILE13       0.0001
     47  N        114.4120   64.8480   49.1930 N.am   14  GLY14      -0.1955
     48  CA       114.5760   64.4350   47.8080 C.3    14  GLY14       0.1869
     49  C        115.7120   65.1710   47.0940 C.2    14  GLY14       0.2309
     50  O        116.5530   64.5220   46.4710 O.2    14  GLY14      -0.2863
     51  N        109.6350   61.7130   40.6160 N.3    35  ASN35      -0.1225
     52  CA       108.1940   61.9520   40.6960 C.3    35  ASN35       0.1785
     53  C        108.1050   63.2010   41.5490 C.2    35  ASN35       0.2597
     54  O        108.5150   63.2210   42.7200 O.2    35  ASN35      -0.2718
     55  CB       107.4820   60.7890   41.3670 C.3    35  ASN35       0.1169
     56  CG       105.9790   60.9190   41.2930 C.2    35  ASN35       0.2627
     57  OD1      105.4170   61.3090   40.2630 O.2    35  ASN35      -0.2716
     58  ND2      105.3200   60.5760   42.3690 N.am   35  ASN35      -0.0877
     59  N        107.5790   64.2530   40.9410 N.am   36  ASN36      -0.1960
     60  CA       107.4990   65.5600   41.5760 C.3    36  ASN36       0.1819
     61  C        106.1010   66.1620   41.4550 C.2    36  ASN36       0.2621
     62  O        105.4860   66.0620   40.3890 O.2    36  ASN36      -0.2715
     63  CB       108.5270   66.4610   40.8790 C.3    36  ASN36       0.1195
     64  CG       108.5210   67.8780   41.3990 C.2    36  ASN36       0.2630
     65  OD1      108.7960   68.8180   40.6550 O.2    36  ASN36      -0.2716
     66  ND2      108.2170   68.0400   42.6850 N.am   36  ASN36      -0.0877
     67  N        105.6150   66.7950   42.5280 N.am   37  THR37      -0.1951
     68  CA       104.2840   67.4210   42.5180 C.3    37  THR37       0.1897
     69  C        104.1500   68.6500   41.6000 C.2    37  THR37       0.2313
     70  O        103.0660   69.2170   41.4700 O.2    37  THR37      -0.2863
     71  CB       103.8390   67.8440   43.9270 C.3    37  THR37       0.1794
     72  OG1      104.8280   68.7070   44.5050 O.3    37  THR37      -0.2208
     73  CG2      103.6300   66.6250   44.7920 C.3    37  THR37       0.0378
     74  N        102.8040   62.0650   39.5720 N.3    79  ASP79      -0.1225
     75  CA       101.6430   61.2500   39.8730 C.3    79  ASP79       0.1805
     76  C        101.4490   61.0160   41.3610 C.2    79  ASP79       0.2597
     77  O        102.2850   60.4020   42.0170 O.2    79  ASP79      -0.2718
     78  CB       101.7540   59.9140   39.1710 C.3    79  ASP79       0.1424
     79  CG       100.4640   59.5100   38.5340 C.2    79  ASP79       0.3668
     80  OD1       99.4190   59.4640   39.2500 O.co2  79  ASP79      -0.2456
     81  OD2      100.5070   59.2480   37.3070 O.co2  79  ASP79      -0.2456
     82  N        100.3230   61.4830   41.8810 N.am   80  ARG80      -0.1979
     83  CA       100.0410   61.3530   43.3020 C.3    80  ARG80       0.1597
     84  C         99.8710   59.9040   43.7900 C.2    80  ARG80       0.2287
     85  O        100.0770   59.6020   44.9780 O.2    80  ARG80      -0.2864
     86  CB        98.8010   62.1860   43.6450 C.3    80  ARG80       0.0334
     87  CG        99.0500   63.6870   43.6560 C.3    80  ARG80       0.0492
     88  CD        99.5780   64.1520   45.0170 C.3    80  ARG80       0.2205
     89  NE        99.9110   65.5800   45.0200 N.pl3  80  ARG80      -0.0865
     90  CZ       100.3300   66.2590   46.0860 C.cat  80  ARG80       0.5346
     91  NH1      100.4690   65.6460   47.2540 N.pl3  80  ARG80       0.1354
     92  NH2      100.6160   67.5530   45.9810 N.pl3  80  ARG80       0.1354
     93  N        101.2200   56.1300   43.6300 N.3    82  PRO82      -0.2116
     94  CA       102.3320   55.2890   43.1690 C.3    82  PRO82       0.1372
     95  C        101.9070   54.1540   42.2380 C.2    82  PRO82       0.2244
     96  O        102.6730   53.7280   41.3580 O.2    82  PRO82      -0.2868
     97  CB       102.9640   54.7960   44.4750 C.3    82  PRO82       0.0268
     98  CG       102.6110   55.9090   45.4660 C.3    82  PRO82       0.0207
     99  CD       101.1830   56.2040   45.1010 C.3    82  PRO82       0.0892
    100  N        110.6560   59.7050   49.5470 N.3    98  SER98      -0.1202
    101  CA       110.8250   60.8910   50.3860 C.3    98  SER98       0.2020
    102  C        109.6330   61.8510   50.2900 C.2    98  SER98       0.2619
    103  O        109.8070   63.0580   50.2410 O.2    98  SER98      -0.2717
    104  CB       112.1260   61.6200   49.9910 C.3    98  SER98       0.2103
    105  OG       112.1900   61.7620   48.5810 O.3    98  SER98      -0.2182
    106  N        108.4240   61.3150   50.2540 N.am   99  THR99      -0.1938
    107  CA       107.2430   62.1640   50.1550 C.3    99  THR99       0.2028
    108  C        106.7060   62.3860   51.5450 C.2    99  THR99       0.2643
    109  O        106.0120   63.3630   51.8170 O.2    99  THR99      -0.2714
    110  CB       106.1200   61.5090   49.3370 C.3    99  THR99       0.1808
    111  OG1      105.6650   60.3310   50.0200 O.3    99  THR99      -0.2208
    112  CG2      106.5970   61.1590   47.9480 C.3    99  THR99       0.0379
    113  N        107.0390   61.4560   52.4220 N.am  100  GLY100     -0.1939
    114  CA       106.5780   61.5340   53.7840 C.3   100  GLY100      0.2014
    115  C        105.1650   60.9940   53.9170 C.2   100  GLY100      0.2639
    116  O        104.5840   61.0110   55.0150 O.2   100  GLY100     -0.2714
    117  N        104.5950   60.5120   52.8110 N.am  101  VAL101     -0.1963
    118  CA       103.2260   60.0030   52.8440 C.3   101  VAL101      0.1727
    119  C        103.0920   58.4850   52.7460 C.2   101  VAL101      0.2616
    120  O        102.0730   57.9300   53.1360 O.2   101  VAL101     -0.2715
    121  CB       102.3410   60.6850   51.7400 C.3   101  VAL101      0.0290
    122  CG1      103.0680   60.7110   50.4340 C.3   101  VAL101      0.0023
    123  CG2      101.0280   59.9260   51.5500 C.3   101  VAL101      0.0023
    124  N        104.1170   57.7990   52.2560 N.am  102  PHE102     -0.1960
    125  CA       104.0350   56.3450   52.1230 C.3   102  PHE102      0.1771
    126  C        105.0560   55.6670   53.0310 C.2   102  PHE102      0.2619
    127  O        105.9670   54.9730   52.5820 O.2   102  PHE102     -0.2715
    128  CB       104.2290   55.9510   50.6470 C.3   102  PHE102      0.0574
    129  CG       103.2130   56.5860   49.7220 C.ar  102  PHE102     -0.0200
    130  CD1      103.5940   57.5450   48.7890 C.ar  102  PHE102     -0.0042
    131  CD2      101.8570   56.2620   49.8230 C.ar  102  PHE102     -0.0042
    132  CE1      102.6320   58.1800   47.9710 C.ar  102  PHE102     -0.0003
    133  CE2      100.8970   56.9000   49.0070 C.ar  102  PHE102     -0.0003
    134  CZ       101.2910   57.8540   48.0860 C.ar  102  PHE102     -0.0000
    135  N        104.8610   55.8440   54.3260 N.am  103  VAL103     -0.1977
    136  CA       105.7750   55.3140   55.3080 C.3   103  VAL103      0.1596
    137  C        105.4190   53.9520   55.9040 C.2   103  VAL103      0.2287
    138  O        106.1510   53.4460   56.7590 O.2   103  VAL103     -0.2864
    139  CB       105.9550   56.3210   56.4610 C.3   103  VAL103      0.0276
    140  CG1      106.5570   57.6400   55.9240 C.3   103  VAL103      0.0022
    141  CG2      104.6010   56.5550   57.1600 C.3   103  VAL103      0.0022
    142  N        112.6040   57.4770   53.4010 N.3   122  THR122     -0.1203
    143  CA       113.5130   58.4100   54.0640 C.3   122  THR122      0.1994
    144  C        112.8980   58.9950   55.3300 C.2   122  THR122      0.2618
    145  O        112.9050   60.1990   55.5470 O.2   122  THR122     -0.2717
    146  CB       113.8980   59.5750   53.1560 C.3   122  THR122      0.1784
    147  OG1      112.7260   60.3510   52.8850 O.3   122  THR122     -0.2211
    148  CG2      114.5170   59.0680   51.8740 C.3   122  THR122      0.0376
    149  N        112.3780   58.1190   56.1680 N.am  123  ALA123     -0.1966
    150  CA       111.7440   58.5310   57.4030 C.3   123  ALA123      0.1713
    151  C        111.4640   57.2690   58.1820 C.2   123  ALA123      0.2458
    152  O        111.6830   56.1550   57.6800 O.2   123  ALA123     -0.2730
    153  CB       110.4490   59.2600   57.1140 C.3   123  ALA123      0.0333
    154  N        110.9950   57.4140   59.4310 N.am  124  PRO124     -0.2727
    155  CA       110.7060   56.2220   60.2300 C.3   124  PRO124      0.1402
    156  C        109.6030   55.3630   59.5850 C.2   124  PRO124      0.2269
    157  O        108.5890   55.8960   59.1370 O.2   124  PRO124     -0.2865
    158  CB       110.2590   56.8120   61.5780 C.3   124  PRO124      0.0296
    159  CG       110.9520   58.1380   61.6200 C.3   124  PRO124      0.0237
    160  CD       110.7710   58.6360   60.2210 C.3   124  PRO124      0.0939
    161  N        114.7190   58.2490   61.4200 N.3   154  SER154     -0.1202
    162  CA       114.6410   59.7050   61.3400 C.3   154  SER154      0.2020
    163  C        116.0220   60.3540   61.4620 C.2   154  SER154      0.2619
    164  O        117.0050   59.6880   61.8330 O.2   154  SER154     -0.2717
    165  CB       113.7320   60.2500   62.4290 C.3   154  SER154      0.2103
    166  OG       114.2460   59.9530   63.7100 O.3   154  SER154     -0.2182
    167  N        116.0980   61.6400   61.1230 N.am  155  CYS155     -0.1969
    168  CA       117.3620   62.3600   61.2110 C.3   155  CYS155      0.1712
    169  C        117.8810   62.2340   62.6570 C.2   155  CYS155      0.2296
    170  O        119.0520   61.9220   62.9060 O.2   155  CYS155     -0.2864
    171  CB       117.1460   63.8230   60.8230 C.3   155  CYS155      0.0983
    172  SG       115.5180   64.4430   61.2610 S.3   155  CYS155     -0.0798
    173  N        110.6350   72.3200   60.1010 N.3   185  THR185     -0.1203
    174  CA       110.5850   71.5860   58.8340 C.3   185  THR185      0.1994
    175  C        109.2410   71.9170   58.2060 C.2   185  THR185      0.2617
    176  O        108.4000   72.5490   58.8590 O.2   185  THR185     -0.2717
    177  CB       110.6820   70.0460   59.0440 C.3   185  THR185      0.1784
    178  OG1      109.5150   69.5760   59.7530 O.3   185  THR185     -0.2211
    179  CG2      111.9650   69.6820   59.8210 C.3   185  THR185      0.0376
    180  N        109.0330   71.5010   56.9550 N.am  186  LEU186     -0.1979
    181  CA       107.7740   71.7860   56.2750 C.3   186  LEU186      0.1596
    182  C        106.5120   71.1870   56.9270 C.2   186  LEU186      0.2287
    183  O        105.3920   71.5370   56.5520 O.2   186  LEU186     -0.2864
    184  CB       107.8840   71.3770   54.8080 C.3   186  LEU186      0.0297
    185  CG       108.6150   72.4310   53.9770 C.3   186  LEU186      0.0022
    186  CD1      109.3820   71.7660   52.8660 C.3   186  LEU186      0.0001
    187  CD2      107.6210   73.4350   53.4290 C.3   186  LEU186      0.0001
    188  N        120.3270   67.8590   59.9640 N.3   318  ASN318     -0.1225
    189  CA       119.1650   67.0100   59.7220 C.3   318  ASN318      0.1785
    190  C        118.7660   66.8200   58.2570 C.2   318  ASN318      0.2597
    191  O        118.0490   65.8770   57.9400 O.2   318  ASN318     -0.2718
    192  CB       117.9520   67.5090   60.5190 C.3   318  ASN318      0.1169
    193  CG       117.7210   69.0060   60.3580 C.2   318  ASN318      0.2627
    194  OD1      118.4120   69.8210   60.9760 O.2   318  ASN318     -0.2716
    195  ND2      116.7540   69.3770   59.5170 N.am  318  ASN318     -0.0877
    196  N        119.2010   67.7040   57.3630 N.am  319  GLU319     -0.1979
    197  CA       118.8460   67.5330   55.9540 C.3   319  GLU319      0.1602
    198  C        119.9410   66.8750   55.1590 C.2   319  GLU319      0.2287
    199  O        119.7400   65.8310   54.5560 O.2   319  GLU319     -0.2864
    200  CB       118.5370   68.8710   55.2870 C.3   319  GLU319      0.0415
    201  CG       117.1790   69.4620   55.5910 C.3   319  GLU319      0.1163
    202  CD       116.9680   70.7200   54.8010 C.2   319  GLU319      0.3649
    203  OE1      117.9480   71.1430   54.1560 O.co2 319  GLU319     -0.2457
    204  OE2      115.8490   71.2830   54.8210 O.co2 319  GLU319     -0.2457
    205  N        121.7190   63.5370   57.0360 N.3   322  TYR322     -0.1241
    206  CA       120.7850   62.4490   56.8960 C.3   322  TYR322      0.1605
    207  C        120.7630   61.9180   55.4480 C.2   322  TYR322      0.2264
    208  O        120.7960   60.7030   55.2280 O.2   322  TYR322     -0.2867
    209  CB       119.3930   62.9460   57.2750 C.3   322  TYR322      0.0534
    210  CG       118.3240   61.9100   57.1050 C.ar  322  TYR322     -0.0201
    211  CD1      118.1410   60.9110   58.0640 C.ar  322  TYR322     -0.0009
    212  CD2      117.5050   61.9070   55.9690 C.ar  322  TYR322     -0.0009
    213  CE1      117.1570   59.9230   57.8970 C.ar  322  TYR322      0.0417
    214  CE2      116.5220   60.9330   55.7910 C.ar  322  TYR322      0.0417
    215  CZ       116.3500   59.9400   56.7630 C.ar  322  TYR322      0.1957
    216  OH       115.3640   58.9890   56.6010 O.3   322  TYR322     -0.2866
@<TRIPOS>BOND
     1    81    79   ar
     2    79    78    1
     3    79    80   ar
     4    78    75    1
     5    74    75    1
     6    75    76    1
     7    57    56    2
     8    62    61    2
     9    51    52    1
    10    65    64    2
    11    52    55    1
    12    52    53    1
    13    63    64    1
    14    63    60    1
    15    59    53   am
    16    59    60    1
    17    56    55    1
    18    56    58   am
    19    96    95    2
    20    76    82   am
    21    76    77    2
    22    64    66   am
    23    61    60    1
    24    61    67   am
    25    70    69    2
    26    53    54    2
    27    69    68    1
    28    82    83    1
    29    22    23   ar
    30    22    20   ar
    31    95    94    1
    32    23    21   ar
    33    68    67    1
    34    68    71    1
    35    20    18   ar
    36    21    19   ar
    37    94    93    1
    38    94    97    1
    39    83    86    1
    40    83    84    1
    41    18    19   ar
    42    18    17    1
    43    93    99    1
    44     7     6    2
    45    86    87    1
    46    87    88    1
    47    17    14    1
    48    84    85    2
    49    71    72    1
    50    71    73    1
    51    97    98    1
    52     1     2    1
    53     6     5    1
    54     6     8   am
    55     2     5    1
    56     2     3    1
    57    88    89    1
    58    89    90    2
    59    99    98    1
    60    14    13    1
    61    14    15    1
    62    13    11   am
    63     9     3   am
    64     9    10    1
    65    16    15    2
    66     3     4    2
    67    92    90    1
    68    90    91    1
    69    15    24   am
    70    11    10    1
    71    11    12    2
    72    50    49    2
    73    49    48    1
    74    24    25    1
    75    48    47    1
    76   112   110    1
    77   132   134   ar
    78   132   130   ar
    79   134   133   ar
    80    25    26    1
    81    27    26    2
    82   105   104    1
    83   130   129   ar
    84   133   131   ar
    85    26    28   am
    86    47    41   am
    87   110   111    1
    88   110   107    1
    89   100   101    1
    90    42    41    2
    91   129   131   ar
    92   129   128    1
    93   104   101    1
    94    41    40    1
    95   107   106    1
    96   107   108    1
    97    37    36    1
    98   103   102    2
    99   106   102   am
   100   102   101    1
   101    28    29    1
   102   122   121    1
   103    31    30    2
   104   128   125    1
   105    30    29    1
   106    30    39   am
   107    29    32    1
   108    40    39    1
   109    40    43    1
   110    36    38    1
   111    36    35    2
   112   108   109    2
   113   108   113   am
   114   123   121    1
   115   121   118    1
   116    34    35    1
   117    34    33    1
   118   148   146    1
   119   125   124    1
   120   125   126    1
   121   124   119   am
   122    45    43    1
   123    43    44    1
   124   113   114    1
   125    32    33    1
   126   127   126    2
   127   119   118    1
   128   119   120    2
   129   117   118    1
   130   117   115   am
   131   186   185    1
   132   147   146    1
   133   126   135   am
   134   146   143    1
   135   142   143    1
   136   187   185    1
   137    44    46    1
   138   114   115    1
   139   115   116    2
   140   185   184    1
   141   143   144    1
   142   203   202   ar
   143   135   136    1
   144   199   198    2
   145   202   204   ar
   146   202   201    1
   147   184   181    1
   148   198   197    1
   149   208   207    2
   150   200   201    1
   151   200   197    1
   152   136   137    1
   153   136   139    1
   154   144   145    2
   155   144   149   am
   156   207   206    1
   157   214   212   ar
   158   214   215   ar
   159   137   138    2
   160   140   139    1
   161   197   196    1
   162   212   210   ar
   163   149   150    1
   164   181   182    1
   165   181   180    1
   166   139   141    1
   167   183   182    2
   168   216   215    1
   169   215   213   ar
   170   206   205    1
   171   206   209    1
   172   180   175   am
   173   210   209    1
   174   210   211   ar
   175   153   150    1
   176   196   190   am
   177   150   151    1
   178   152   151    2
   179   213   211   ar
   180   191   190    2
   181   151   154   am
   182   175   174    1
   183   175   176    2
   184   190   189    1
   185   174   177    1
   186   174   173    1
   187   177   178    1
   188   177   179    1
   189   157   156    2
   190   154   160    1
   191   154   155    1
   192   195   193   am
   193   156   155    1
   194   189   188    1
   195   189   192    1
   196   160   159    1
   197   155   158    1
   198   193   192    1
   199   193   194    2
   200   171   168    1
   201   171   172    1
   202   167   168    1
   203   167   163   am
   204   168   169    1
   205   162   161    1
   206   162   163    1
   207   162   165    1
   208   163   164    2
   209   158   159    1
   210   165   166    1
   211   169   170    2
