@<TRIPOS>MOLECULE
tmp/2d2mA00.pdb
 230 217 0 0 0
SMALL
GASTEIGER

@<TRIPOS>ATOM
      1  N          4.5950   38.3020  139.8060 N.3    32  PHE32      -0.1241
      2  CA         4.3580   39.5030  140.5850 C.3    32  PHE32       0.1605
      3  C          4.4870   39.2310  142.0690 C.2    32  PHE32       0.2264
      4  O          4.8000   40.1290  142.8480 O.2    32  PHE32      -0.2867
      5  CB         2.9900   40.0760  140.2410 C.3    32  PHE32       0.0534
      6  CG         3.0000   40.8830  138.9850 C.ar   32  PHE32      -0.0203
      7  CD1        3.0750   42.2710  139.0340 C.ar   32  PHE32      -0.0042
      8  CD2        3.0210   40.2550  137.7430 C.ar   32  PHE32      -0.0042
      9  CE1        3.1730   43.0210  137.8640 C.ar   32  PHE32      -0.0003
     10  CE2        3.1200   40.9960  136.5700 C.ar   32  PHE32      -0.0003
     11  CZ         3.1970   42.3800  136.6320 C.ar   32  PHE32      -0.0000
     12  N          8.1620   39.9600  142.6680 N.3    35  LEU35      -0.1245
     13  CA         8.3820   41.3980  142.5430 C.3    35  LEU35       0.1561
     14  C          8.0220   42.1270  143.8270 C.2    35  LEU35       0.2260
     15  O          8.6930   43.0770  144.2140 O.2    35  LEU35      -0.2867
     16  CB         7.5490   41.9720  141.3990 C.3    35  LEU35       0.0270
     17  CG         7.7360   43.4690  141.1600 C.3    35  LEU35       0.0019
     18  CD1        9.1930   43.7530  140.8010 C.3    35  LEU35       0.0001
     19  CD2        6.8070   43.9230  140.0540 C.3    35  LEU35       0.0001
     20  N         10.6260   43.6090  146.6340 N.3    39  GLN39      -0.1245
     21  CA        10.4640   45.0630  146.6350 C.3    39  GLN39       0.1566
     22  C          9.0180   45.3940  147.0100 C.2    39  GLN39       0.2260
     23  O          8.1980   45.7340  146.1570 O.2    39  GLN39      -0.2867
     24  CB        10.8040   45.6480  145.2630 C.3    39  GLN39       0.0367
     25  CG        10.5770   47.1470  145.1580 C.3    39  GLN39       0.0905
     26  CD        11.0840   47.7280  143.8500 C.2    39  GLN39       0.2608
     27  OE1       12.2900   47.8920  143.6550 O.2    39  GLN39      -0.2717
     28  NE2       10.1650   48.0350  142.9420 N.am   39  GLN39      -0.0878
     29  N          6.6610   48.3080  145.9190 N.3    42  SER42      -0.1217
     30  CA         5.9480   48.3090  144.6430 C.3    42  SER42       0.1889
     31  C          4.5410   47.7340  144.7000 C.2    42  SER42       0.2288
     32  O          3.6910   48.1040  143.8990 O.2    42  SER42      -0.2866
     33  CB         6.7530   47.5400  143.5900 C.3    42  SER42       0.2089
     34  OG         6.9060   46.1780  143.9540 O.3    42  SER42      -0.2183
     35  N          2.1130   50.0030  144.1960 N.3    45  LEU45      -0.1231
     36  CA         2.2700   50.6930  142.9230 C.3    45  LEU45       0.1693
     37  C          1.2500   50.1700  141.9100 C.2    45  LEU45       0.2592
     38  O          1.1090   50.7090  140.8110 O.2    45  LEU45      -0.2718
     39  CB         3.7020   50.4950  142.4060 C.3    45  LEU45       0.0284
     40  CG         4.2330   51.3510  141.2490 C.3    45  LEU45       0.0019
     41  CD1        3.9840   52.8320  141.5170 C.3    45  LEU45       0.0001
     42  CD2        5.7260   51.0840  141.0790 C.3    45  LEU45       0.0001
     43  N          0.5320   49.1200  142.2990 N.am   46  PHE46      -0.1976
     44  CA        -0.4850   48.5110  141.4460 C.3    46  PHE46       0.1639
     45  C         -1.8190   48.6010  142.1670 C.2    46  PHE46       0.2290
     46  O         -2.6400   47.6850  142.0840 O.2    46  PHE46      -0.2864
     47  CB        -0.1590   47.0370  141.1900 C.3    46  PHE46       0.0560
     48  CG         1.1620   46.8080  140.5180 C.ar   46  PHE46      -0.0200
     49  CD1        1.2830   46.9130  139.1400 C.ar   46  PHE46      -0.0042
     50  CD2        2.2920   46.4980  141.2660 C.ar   46  PHE46      -0.0042
     51  CE1        2.5100   46.7140  138.5190 C.ar   46  PHE46      -0.0003
     52  CE2        3.5230   46.2990  140.6510 C.ar   46  PHE46      -0.0003
     53  CZ         3.6310   46.4070  139.2740 C.ar   46  PHE46      -0.0000
     54  N         -4.2520   50.1050  141.4430 N.3    48  GLY48      -0.1210
     55  CA        -5.3620   50.1210  140.5110 C.3    48  GLY48       0.1956
     56  C         -5.9170   48.7390  140.2280 C.2    48  GLY48       0.2611
     57  O         -7.0780   48.4640  140.5170 O.2    48  GLY48      -0.2717
     58  N         -5.0700   47.8730  139.6770 N.am   49  VAL49      -0.1979
     59  CA        -5.4320   46.5030  139.3090 C.3    49  VAL49       0.1595
     60  C         -5.8250   45.5490  140.4500 C.2    49  VAL49       0.2287
     61  O         -5.6280   44.3370  140.3530 O.2    49  VAL49      -0.2864
     62  CB        -4.2910   45.8520  138.4970 C.3    49  VAL49       0.0276
     63  CG1       -4.1260   46.5710  137.1630 C.3    49  VAL49       0.0022
     64  CG2       -2.9900   45.9090  139.2910 C.3    49  VAL49       0.0022
     65  N         -4.2060   41.4210  135.0700 N.3    62  HIS62      -0.1241
     66  CA        -3.0120   42.2440  134.8800 C.3    62  HIS62       0.1621
     67  C         -1.7390   41.4320  134.6630 C.2    62  HIS62       0.2264
     68  O         -0.9960   41.6730  133.7120 O.2    62  HIS62      -0.2867
     69  CB        -2.8030   43.1680  136.0780 C.3    62  HIS62       0.0745
     70  CG        -1.5240   43.9440  136.0170 C.ar   62  HIS62       0.0817
     71  ND1       -1.3120   44.9590  135.1110 N.ar   62  HIS62      -0.2268
     72  CD2       -0.3760   43.8260  136.7260 C.ar   62  HIS62       0.1154
     73  CE1       -0.0890   45.4330  135.2640 C.ar   62  HIS62       0.1986
     74  NE2        0.5010   44.7630  136.2370 N.ar   62  HIS62      -0.2212
     75  N         -1.4020   40.1440  131.1540 N.3    65  ARG65      -0.1231
     76  CA        -1.0170   41.1360  130.1530 C.3    65  ARG65       0.1694
     77  C          0.4910   41.3560  130.1550 C.2    65  ARG65       0.2591
     78  O          1.0900   41.6450  129.1200 O.2    65  ARG65      -0.2718
     79  CB        -1.7030   42.4770  130.4220 C.3    65  ARG65       0.0321
     80  CG        -3.1700   42.3760  130.7610 C.3    65  ARG65       0.0489
     81  CD        -3.8930   43.6860  130.4910 C.3    65  ARG65       0.2205
     82  NE        -5.2240   43.6910  131.0900 N.pl3  65  ARG65      -0.0865
     83  CZ        -5.4890   44.1730  132.2980 C.cat  65  ARG65       0.5346
     84  NH1       -4.5160   44.6990  133.0300 N.pl3  65  ARG65       0.1354
     85  NH2       -6.7230   44.1110  132.7820 N.pl3  65  ARG65       0.1354
     86  N          1.0970   41.2230  131.3280 N.am   66  VAL66      -0.1980
     87  CA         2.5240   41.4250  131.4740 C.3    66  VAL66       0.1595
     88  C          3.3050   40.2240  130.9800 C.2    66  VAL66       0.2287
     89  O          4.2080   40.3700  130.1610 O.2    66  VAL66      -0.2864
     90  CB         2.8820   41.7050  132.9310 C.3    66  VAL66       0.0276
     91  CG1        4.3770   41.8430  133.0810 C.3    66  VAL66       0.0022
     92  CG2        2.1930   42.9720  133.3850 C.3    66  VAL66       0.0022
     93  N          2.8480   40.4560  127.5260 N.3    69  ALA69      -0.1231
     94  CA         3.6780   41.4650  126.8950 C.3    69  ALA69       0.1694
     95  C          5.0840   40.8960  126.9060 C.2    69  ALA69       0.2591
     96  O          5.7300   40.7960  125.8680 O.2    69  ALA69      -0.2718
     97  CB         3.6310   42.7540  127.6870 C.3    69  ALA69       0.0304
     98  N          5.5510   40.5080  128.0870 N.am   70  LEU70      -0.1980
     99  CA         6.8790   39.9320  128.2190 C.3    70  LEU70       0.1596
    100  C          7.1020   38.8940  127.1320 C.2    70  LEU70       0.2287
    101  O          8.2270   38.6820  126.6820 O.2    70  LEU70      -0.2864
    102  CB         7.0440   39.2780  129.5930 C.3    70  LEU70       0.0297
    103  CG         7.6050   40.1680  130.7010 C.3    70  LEU70       0.0022
    104  CD1        7.5420   39.4700  132.0390 C.3    70  LEU70       0.0001
    105  CD2        9.0390   40.5090  130.3650 C.3    70  LEU70       0.0001
    106  N          5.2250   38.7960  124.0140 N.3    72  ARG72      -0.1231
    107  CA         5.1590   39.4150  122.6910 C.3    72  ARG72       0.1694
    108  C          6.4150   40.2100  122.3530 C.2    72  ARG72       0.2591
    109  O          6.5560   40.7180  121.2400 O.2    72  ARG72      -0.2718
    110  CB         3.9290   40.3270  122.5690 C.3    72  ARG72       0.0321
    111  CG         4.1280   41.7710  123.0150 C.3    72  ARG72       0.0489
    112  CD         3.0120   42.6590  122.4620 C.3    72  ARG72       0.2205
    113  NE         3.1780   44.0790  122.7780 N.pl3  72  ARG72      -0.0865
    114  CZ         2.9010   44.6290  123.9560 C.cat  72  ARG72       0.5346
    115  NH1        2.4380   43.8820  124.9460 N.pl3  72  ARG72       0.1354
    116  NH2        3.0850   45.9300  124.1430 N.pl3  72  ARG72       0.1354
    117  N          7.3210   40.3200  123.3180 N.am   73  LEU73      -0.1980
    118  CA         8.5660   41.0470  123.1170 C.3    73  LEU73       0.1596
    119  C          9.7190   40.0950  122.8200 C.2    73  LEU73       0.2287
    120  O         10.4870   40.3130  121.8830 O.2    73  LEU73      -0.2864
    121  CB         8.9030   41.8860  124.3540 C.3    73  LEU73       0.0297
    122  CG         8.2830   43.2800  124.4780 C.3    73  LEU73       0.0022
    123  CD1        6.7810   43.2060  124.3410 C.3    73  LEU73       0.0001
    124  CD2        8.6650   43.8780  125.8200 C.3    73  LEU73       0.0001
    125  N          5.1360   50.4990  124.9540 N.3    90  LEU90      -0.1245
    126  CA         5.0950   50.0990  126.3500 C.3    90  LEU90       0.1561
    127  C          5.6970   51.1410  127.2820 C.2    90  LEU90       0.2260
    128  O          5.0470   51.6040  128.2150 O.2    90  LEU90      -0.2867
    129  CB         5.8380   48.7780  126.5330 C.3    90  LEU90       0.0270
    130  CG         5.1470   47.5350  125.9980 C.3    90  LEU90       0.0019
    131  CD1        6.1010   46.3600  126.1040 C.3    90  LEU90       0.0001
    132  CD2        3.8620   47.2820  126.7830 C.3    90  LEU90       0.0001
    133  N          3.5050   53.5560  128.1460 N.3    93  GLN93      -0.1231
    134  CA         2.3090   53.1340  128.8580 C.3    93  GLN93       0.1698
    135  C          2.6450   53.1470  130.3380 C.2    93  GLN93       0.2592
    136  O          1.7700   53.0090  131.1880 O.2    93  GLN93      -0.2718
    137  CB         1.8890   51.7240  128.4360 C.3    93  GLN93       0.0381
    138  CG         1.3380   51.6310  127.0240 C.3    93  GLN93       0.0905
    139  CD         0.6970   50.2890  126.7500 C.2    93  GLN93       0.2608
    140  OE1        1.3790   49.2690  126.6520 O.2    93  GLN93      -0.2717
    141  NE2       -0.6240   50.2800  126.6350 N.am   93  GLN93      -0.0878
    142  N          3.9300   53.3100  130.6330 N.am   94  HIS94      -0.1976
    143  CA         4.4110   53.3570  132.0060 C.3    94  HIS94       0.1656
    144  C          4.7930   54.7760  132.4110 C.2    94  HIS94       0.2291
    145  O          5.2670   54.9990  133.5250 O.2    94  HIS94      -0.2864
    146  CB         5.6330   52.4550  132.1810 C.3    94  HIS94       0.0771
    147  CG         5.3200   50.9950  132.1430 C.ar   94  HIS94       0.0820
    148  ND1        4.8610   50.3630  131.0090 N.ar   94  HIS94      -0.2267
    149  CD2        5.4020   50.0420  133.1010 C.ar   94  HIS94       0.1154
    150  CE1        4.6740   49.0820  131.2700 C.ar   94  HIS94       0.1986
    151  NE2        4.9940   48.8610  132.5330 N.ar   94  HIS94      -0.2212
    152  N          2.6950   56.2240  135.7200 N.3    97  ARG97      -0.1245
    153  CA         3.1740   55.6530  136.9750 C.3    97  ARG97       0.1563
    154  C          4.6130   56.0420  137.2860 C.2    97  ARG97       0.2260
    155  O          5.5100   55.8670  136.4630 O.2    97  ARG97      -0.2867
    156  CB         3.0490   54.1260  136.9580 C.3    97  ARG97       0.0307
    157  CG         1.6170   53.6170  136.9110 C.3    97  ARG97       0.0489
    158  CD         1.0110   53.7880  135.5320 C.3    97  ARG97       0.2205
    159  NE        -0.3840   53.3630  135.4920 N.pl3  97  ARG97      -0.0865
    160  CZ        -1.1280   53.3460  134.3900 C.cat  97  ARG97       0.5346
    161  NH1       -0.6090   53.7300  133.2310 N.pl3  97  ARG97       0.1354
    162  NH2       -2.3910   52.9470  134.4460 N.pl3  97  ARG97       0.1354
    163  N          7.8280   55.4130  138.1720 N.3    99  LEU99      -0.1245
    164  CA         8.6940   54.2490  138.2910 C.3    99  LEU99       0.1561
    165  C         10.1560   54.6620  138.3350 C.2    99  LEU99       0.2260
    166  O         10.6220   55.4100  137.4730 O.2    99  LEU99      -0.2867
    167  CB         8.4840   53.2980  137.1040 C.3    99  LEU99       0.0270
    168  CG         7.0880   52.7510  136.7930 C.3    99  LEU99       0.0019
    169  CD1        7.1710   51.8830  135.5600 C.3    99  LEU99       0.0001
    170  CD2        6.5470   51.9600  137.9710 C.3    99  LEU99       0.0001
    171  N         12.6940   49.6850  140.4930 N.3   103  ASN103     -0.1225
    172  CA        11.5120   48.8990  140.1610 C.3   103  ASN103      0.1785
    173  C         11.8370   47.9300  139.0310 C.2   103  ASN103      0.2597
    174  O         11.6410   46.7210  139.1680 O.2   103  ASN103     -0.2718
    175  CB        10.3660   49.8110  139.7320 C.3   103  ASN103      0.1169
    176  CG         9.9770   50.7960  140.8060 C.2   103  ASN103      0.2627
    177  OD1        9.8410   50.4300  141.9710 O.2   103  ASN103     -0.2716
    178  ND2        9.7830   52.0530  140.4210 N.am  103  ASN103     -0.0877
    179  N         12.3310   48.4620  137.9140 N.am  104  PHE104     -0.1976
    180  CA        12.6920   47.6260  136.7790 C.3   104  PHE104      0.1639
    181  C         13.7600   46.6390  137.1900 C.2   104  PHE104      0.2290
    182  O         13.6730   45.4520  136.8760 O.2   104  PHE104     -0.2864
    183  CB        13.1790   48.4790  135.6140 C.3   104  PHE104      0.0560
    184  CG        12.0710   49.1970  134.9030 C.ar  104  PHE104     -0.0200
    185  CD1       11.2600   50.1000  135.5850 C.ar  104  PHE104     -0.0042
    186  CD2       11.8120   48.9510  133.5620 C.ar  104  PHE104     -0.0042
    187  CE1       10.2100   50.7400  134.9440 C.ar  104  PHE104     -0.0003
    188  CE2       10.7610   49.5920  132.9160 C.ar  104  PHE104     -0.0003
    189  CZ         9.9610   50.4860  133.6100 C.ar  104  PHE104     -0.0000
    190  N         12.0780   44.0810  138.8710 N.3   107  MET107     -0.1245
    191  CA        11.2940   43.2780  137.9500 C.3   107  MET107      0.1570
    192  C         12.1710   42.1650  137.4060 C.2   107  MET107      0.2261
    193  O         11.7820   41.0020  137.4160 O.2   107  MET107     -0.2867
    194  CB        10.7740   44.1450  136.8020 C.3   107  MET107      0.0387
    195  CG         9.9000   43.3960  135.8160 C.3   107  MET107      0.0595
    196  SD         8.5360   42.5590  136.6400 S.3   107  MET107     -0.1393
    197  CE         7.2250   43.7430  136.3970 C.3   107  MET107      0.0692
    198  N         16.8020   41.0110  129.4170 N.3   131  TYR131     -0.1241
    199  CA        15.8230   41.6910  130.2400 C.3   131  TYR131      0.1605
    200  C         16.1990   43.1590  130.1930 C.2   131  TYR131      0.2264
    201  O         15.3340   44.0380  130.1580 O.2   131  TYR131     -0.2867
    202  CB        15.8470   41.2230  131.6840 C.3   131  TYR131      0.0534
    203  CG        14.9950   42.1270  132.5350 C.ar  131  TYR131     -0.0201
    204  CD1       13.6410   42.2940  132.2540 C.ar  131  TYR131     -0.0009
    205  CD2       15.5530   42.8840  133.5610 C.ar  131  TYR131     -0.0009
    206  CE1       12.8680   43.1900  132.9610 C.ar  131  TYR131      0.0417
    207  CE2       14.7870   43.7880  134.2810 C.ar  131  TYR131      0.0417
    208  CZ        13.4440   43.9360  133.9740 C.ar  131  TYR131      0.1957
    209  OH        12.6740   44.8340  134.6810 O.3   131  TYR131     -0.2866
    210  N         15.0890   44.8480  127.2010 N.3   134  ILE134     -0.1231
    211  CA        13.6690   45.1460  127.3120 C.3   134  ILE134      0.1692
    212  C         13.4140   46.2450  128.3250 C.2   134  ILE134      0.2591
    213  O         12.7110   47.2140  128.0370 O.2   134  ILE134     -0.2718
    214  CB        12.8550   43.9130  127.7440 C.3   134  ILE134      0.0266
    215  CG1       12.9660   42.8170  126.6850 C.3   134  ILE134      0.0019
    216  CG2       11.3910   44.3100  127.9660 C.3   134  ILE134      0.0020
    217  CD1       12.1240   41.6050  126.9810 C.3   134  ILE134      0.0001
    218  N         13.9780   46.0770  129.5160 N.am  135  ALA135     -0.1980
    219  CA        13.8160   47.0480  130.5900 C.3   135  ALA135      0.1597
    220  C         14.0960   48.4620  130.0720 C.2   135  ALA135      0.2287
    221  O         13.2690   49.3680  130.2270 O.2   135  ALA135     -0.2864
    222  CB        14.7550   46.6980  131.7510 C.3   135  ALA135      0.0319
    223  N         11.5790   49.9650  127.8560 N.3   138  ILE138     -0.1245
    224  CA        10.3600   50.3760  128.5460 C.3   138  ILE138      0.1561
    225  C         10.5450   51.5100  129.5540 C.2   138  ILE138      0.2260
    226  O          9.7610   51.6490  130.4890 O.2   138  ILE138     -0.2867
    227  CB         9.7020   49.1710  129.2530 C.3   138  ILE138      0.0252
    228  CG1        9.6900   47.9680  128.3110 C.3   138  ILE138      0.0019
    229  CG2        8.2620   49.4910  129.6140 C.3   138  ILE138      0.0019
    230  CD1        9.1340   46.7030  128.9270 C.3   138  ILE138      0.0001
@<TRIPOS>BOND
     1   109   108    2
     2   120   119    2
     3   108   107    1
     4   108   117   am
     5   112   113    1
     6   112   111    1
     7   110   107    1
     8   110   111    1
     9   107   106    1
    10   113   114    2
    11   119   118    1
    12   118   117    1
    13   118   121    1
    14   114   116    1
    15   114   115    1
    16   123   122    1
    17   121   122    1
    18   122   124    1
    19   125   126    1
    20    96    95    2
    21   130   131    1
    22   130   129    1
    23   130   132    1
    24   126   129    1
    25   126   127    1
    26   141   139   am
    27   140   139    2
    28   101   100    2
    29   215   217    1
    30   215   214    1
    31   139   138    1
    32    94    95    1
    33    94    93    1
    34    94    97    1
    35    95    98   am
    36   138   137    1
    37   100    99    1
    38   210   211    1
    39   127   128    2
    40   211   214    1
    41   211   212    1
    42   214   216    1
    43   223   224    1
    44   213   212    2
    45    98    99    1
    46   133   134    1
    47    99   102    1
    48   228   230    1
    49   228   227    1
    50   212   218   am
    51   137   134    1
    52   224   227    1
    53   224   225    1
    54   134   135    1
    55    78    77    2
    56   227   229    1
    57   198   199    1
    58   218   219    1
    59   225   226    2
    60   102   103    1
    61   220   221    2
    62   220   219    1
    63    76    77    1
    64    76    79    1
    65    76    75    1
    66    77    86   am
    67   201   200    2
    68    89    88    2
    69   200   199    1
    70   199   202    1
    71   135   142   am
    72   135   136    2
    73   105   103    1
    74    79    80    1
    75    81    80    1
    76    81    82    1
    77   219   222    1
    78   142   143    1
    79   103   104    1
    80    88    87    1
    81   148   150   ar
    82   148   147   ar
    83    82    83    2
    84   150   151   ar
    85    86    87    1
    86    87    90    1
    87   202   203    1
    88   143   146    1
    89   143   144    1
    90   147   146    1
    91   147   149   ar
    92   204   203   ar
    93   204   206   ar
    94    83    85    1
    95    83    84    1
    96   144   145    2
    97   151   149   ar
    98   203   205   ar
    99   188   186   ar
   100   188   189   ar
   101    90    91    1
   102    90    92    1
   103   206   208   ar
   104   161   160    1
   105   205   207   ar
   106   186   184   ar
   107   189   187   ar
   108    68    67    2
   109   208   207   ar
   110   208   209    1
   111   160   162    1
   112   160   159    2
   113    67    66    1
   114    66    65    1
   115    66    69    1
   116   184   185   ar
   117   184   183    1
   118   187   185   ar
   119    71    73   ar
   120    71    70   ar
   121    73    74   ar
   122   159   158    1
   123   158   157    1
   124   169   168    1
   125   183   180    1
   126   152   153    1
   127   195   196    1
   128   195   194    1
   129    70    69    1
   130    70    72   ar
   131    74    72   ar
   132   197   196    1
   133   155   154    2
   134    10    11   ar
   135    10     8   ar
   136    11     9   ar
   137   180   181    1
   138   180   179    1
   139   168   167    1
   140   168   170    1
   141   194   191    1
   142   182   181    2
   143   157   156    1
   144   156   153    1
   145   153   154    1
   146   167   164    1
   147    63    62    1
   148   192   193    2
   149   192   191    1
   150   166   165    2
   151     8     6   ar
   152     9     7   ar
   153   179   173   am
   154   191   190    1
   155   163   164    1
   156   164   165    1
   157    62    64    1
   158    62    59    1
   159    51    49   ar
   160    51    53   ar
   161     6     7   ar
   162     6     5    1
   163   173   174    2
   164   173   172    1
   165    49    48   ar
   166    53    52   ar
   167    59    58    1
   168    59    60    1
   169    58    56   am
   170   175   172    1
   171   175   176    1
   172     1     2    1
   173    19    17    1
   174   172   171    1
   175    56    55    1
   176    56    57    2
   177     5     2    1
   178    61    60    2
   179   178   176   am
   180    55    54    1
   181    48    47    1
   182    48    50   ar
   183     2     3    1
   184    52    50   ar
   185    18    17    1
   186   176   177    2
   187    38    37    2
   188    42    40    1
   189    17    16    1
   190    47    44    1
   191    40    41    1
   192    40    39    1
   193    16    13    1
   194    44    45    1
   195    44    43    1
   196    37    43   am
   197    37    36    1
   198     3     4    2
   199    46    45    2
   200    39    36    1
   201    13    12    1
   202    13    14    1
   203    36    35    1
   204    28    26   am
   205    33    34    1
   206    33    30    1
   207    27    26    2
   208    14    15    2
   209    26    25    1
   210    32    31    2
   211    30    31    1
   212    30    29    1
   213    25    24    1
   214    24    21    1
   215    23    22    2
   216    20    21    1
   217    21    22    1
