@<TRIPOS>MOLECULE
tmp/2d2vA00.pdb
 128 115 0 0 0
SMALL
GASTEIGER

@<TRIPOS>ATOM
      1  N         52.0080   10.3980  100.5380 N.3     9  ASP9       -0.1239
      2  CA        51.0290    9.3920  100.1630 C.3     9  ASP9        0.1674
      3  C         50.1510    9.2740  101.4090 C.2     9  ASP9        0.2266
      4  O         50.5040    9.8030  102.4620 O.2     9  ASP9       -0.2867
      5  CB        51.7100    8.0520   99.8430 C.3     9  ASP9        0.1410
      6  CG        50.7580    7.0560   99.1930 C.2     9  ASP9        0.3668
      7  OD1       49.5580    7.3810   99.0570 O.co2   9  ASP9       -0.2456
      8  OD2       51.2070    5.9570   98.8230 O.co2   9  ASP9       -0.2456
      9  N         47.7580    6.0910  102.6430 N.3    11  ASP11      -0.1225
     10  CA        47.7750    4.7700  103.3020 C.3    11  ASP11       0.1805
     11  C         49.2140    4.2880  103.6330 C.2    11  ASP11       0.2597
     12  O         50.0470    4.1190  102.7610 O.2    11  ASP11      -0.2718
     13  CB        47.1540    3.7180  102.3960 C.3    11  ASP11       0.1424
     14  CG        45.7050    4.0190  102.0440 C.2    11  ASP11       0.3668
     15  OD1       44.8890    4.4080  102.9610 O.co2  11  ASP11      -0.2456
     16  OD2       45.3000    3.8840  100.8300 O.co2  11  ASP11      -0.2456
     17  N         49.4020    4.0810  104.8860 N.am   12  ASN12      -0.1974
     18  CA        50.6380    3.6040  105.5760 C.3    12  ASN12       0.1688
     19  C         51.7730    4.6190  105.5260 C.2    12  ASN12       0.2292
     20  O         52.9090    4.3390  105.9260 O.2    12  ASN12      -0.2864
     21  CB        51.1230    2.2840  105.0430 C.3    12  ASN12       0.1181
     22  CG        49.9760    1.3290  104.7830 C.2    12  ASN12       0.2629
     23  OD1       50.0040    0.6130  103.7900 O.2    12  ASN12      -0.2716
     24  ND2       48.9560    1.2830  105.6230 N.am   12  ASN12      -0.0877
     25  N         48.4040   10.2250   96.2550 N.3    41  THR41      -0.1203
     26  CA        47.9470    8.8570   96.4760 C.3    41  THR41       0.1994
     27  C         47.6090    8.0990   95.2080 C.2    41  THR41       0.2618
     28  O         47.3420    8.6920   94.1660 O.2    41  THR41      -0.2717
     29  CB        46.6970    8.8470   97.3790 C.3    41  THR41       0.1784
     30  OG1       46.1100    7.5390   97.3810 O.3    41  THR41      -0.2211
     31  CG2       45.6760    9.8670   96.8810 C.3    41  THR41       0.0376
     32  N         47.6280    6.7750   95.3100 N.am   42  GLY42      -0.1942
     33  CA        47.2960    5.9460   94.1720 C.3    42  GLY42       0.2014
     34  C         45.7880    5.8520   94.0290 C.2    42  GLY42       0.2638
     35  O         45.2790    5.4790   92.9750 O.2    42  GLY42      -0.2714
     36  N         45.0740    6.2040   95.0960 N.am   43  ARG43      -0.1977
     37  CA        43.6140    6.1650   95.1100 C.3    43  ARG43       0.1597
     38  C         43.0110    7.2130   94.1830 C.2    43  ARG43       0.2287
     39  O         43.6460    8.2180   93.8570 O.2    43  ARG43      -0.2864
     40  CB        43.0730    6.4640   96.5110 C.3    43  ARG43       0.0334
     41  CG        43.3770    5.4580   97.5890 C.3    43  ARG43       0.0492
     42  CD        42.6850    5.8380   98.8800 C.3    43  ARG43       0.2205
     43  NE        42.9290    4.8650   99.9470 N.pl3  43  ARG43      -0.0865
     44  CZ        41.9870    4.3890  100.7560 C.cat  43  ARG43       0.5346
     45  NH1       40.7380    4.7900  100.6180 N.pl3  43  ARG43       0.1354
     46  NH2       42.2900    3.4790  101.6780 N.pl3  43  ARG43       0.1354
     47  N         37.8680    8.0310   96.2930 N.3    47  SER47      -0.1217
     48  CA        38.3440    7.1190   97.3220 C.3    47  SER47       0.1889
     49  C         39.1720    7.8580   98.3750 C.2    47  SER47       0.2288
     50  O         39.1140    7.5300   99.5620 O.2    47  SER47      -0.2866
     51  CB        39.1680    5.9930   96.6950 C.3    47  SER47       0.2089
     52  OG        39.6200    5.0930   97.6920 O.3    47  SER47      -0.2183
     53  N         47.9240    8.0350   91.4010 N.3    67  VAL67      -0.1245
     54  CA        49.3490    8.0450   91.1010 C.3    67  VAL67       0.1561
     55  C         49.7440    9.2570   90.2470 C.2    67  VAL67       0.2260
     56  O         50.6400    9.1790   89.4120 O.2    67  VAL67      -0.2867
     57  CB        49.7700    6.7380   90.3730 C.3    67  VAL67       0.0252
     58  CG1       51.2970    6.5720   90.4300 C.3    67  VAL67       0.0019
     59  CG2       49.0830    5.5420   91.0080 C.3    67  VAL67       0.0019
     60  N         42.1010   -4.6560   87.8850 N.3   107  GLN107     -0.1245
     61  CA        41.6170   -4.2200   89.1810 C.3   107  GLN107      0.1566
     62  C         40.2000   -3.7610   88.8670 C.2   107  GLN107      0.2260
     63  O         39.8440   -3.6490   87.6960 O.2   107  GLN107     -0.2867
     64  CB        42.4380   -3.0510   89.7210 C.3   107  GLN107      0.0367
     65  CG        43.7450   -3.4460   90.3990 C.3   107  GLN107      0.0905
     66  CD        44.4820   -2.2390   90.9630 C.2   107  GLN107      0.2608
     67  OE1       43.8640   -1.3300   91.5160 O.2   107  GLN107     -0.2717
     68  NE2       45.8010   -2.2290   90.8320 N.am  107  GLN107     -0.0878
     69  N         38.9850    1.6620   89.7880 N.3   111  GLU111     -0.1245
     70  CA        40.3900    1.9890   90.0380 C.3   111  GLU111      0.1567
     71  C         41.0220    2.4520   88.7370 C.2   111  GLU111      0.2260
     72  O         42.1760    2.8780   88.7230 O.2   111  GLU111     -0.2867
     73  CB        41.1760    0.7830   90.5730 C.3   111  GLU111      0.0388
     74  CG        40.7550    0.3230   91.9530 C.3   111  GLU111      0.1160
     75  CD        40.9220    1.3990   93.0060 C.2   111  GLU111      0.3649
     76  OE1       41.5460    2.4370   92.7090 O.co2 111  GLU111     -0.2457
     77  OE2       40.4290    1.2040   94.1350 O.co2 111  GLU111     -0.2457
     78  N         45.1040    5.6530   83.5490 N.3   116  LYS116     -0.1245
     79  CA        45.5590    4.6480   84.5030 C.3   116  LYS116      0.1561
     80  C         44.9110    3.2940   84.2490 C.2   116  LYS116      0.2260
     81  O         43.6890    3.1590   84.3230 O.2   116  LYS116     -0.2867
     82  CB        45.2570    5.1310   85.9270 C.3   116  LYS116      0.0271
     83  CG        45.4880    4.1250   87.0480 C.3   116  LYS116      0.0035
     84  CD        45.3020    4.8390   88.3870 C.3   116  LYS116      0.0206
     85  CE        45.5920    3.9630   89.5920 C.3   116  LYS116      0.1093
     86  NZ        44.5760    2.8960   89.7660 N.3   116  LYS116     -0.1314
     87  N         53.9950   -1.9730   92.8060 N.3   149  SER149     -0.1202
     88  CA        54.1160   -1.7100   94.2280 C.3   149  SER149      0.2020
     89  C         53.4210   -2.7240   95.1170 C.2   149  SER149      0.2619
     90  O         52.4020   -3.3060   94.7430 O.2   149  SER149     -0.2717
     91  CB        53.6080   -0.3010   94.5600 C.3   149  SER149      0.2103
     92  OG        52.2220   -0.1760   94.3170 O.3   149  SER149     -0.2182
     93  N         53.9930   -2.9170   96.3010 N.am  150  SER150     -0.1951
     94  CA        53.4740   -3.8400   97.3030 C.3   150  SER150      0.1924
     95  C         53.4300   -5.2840   96.8140 C.2   150  SER150      0.2314
     96  O         52.6340   -6.0860   97.3010 O.2   150  SER150     -0.2863
     97  CB        52.0760   -3.4030   97.7490 C.3   150  SER150      0.2116
     98  OG        52.1070   -2.1060   98.3090 O.3   150  SER150     -0.2180
     99  N         50.3560   -4.6310   93.1890 N.3   153  ASP153     -0.1239
    100  CA        49.7730   -3.5410   92.4020 C.3   153  ASP153      0.1674
    101  C         50.5780   -3.1150   91.1760 C.2   153  ASP153      0.2266
    102  O         51.7580   -2.7800   91.2750 O.2   153  ASP153     -0.2867
    103  CB        49.5420   -2.3240   93.3030 C.3   153  ASP153      0.1410
    104  CG        48.5100   -2.5880   94.3830 C.2   153  ASP153      0.3668
    105  OD1       47.7540   -3.5690   94.2480 O.co2 153  ASP153     -0.2456
    106  OD2       48.4460   -1.8140   95.3620 O.co2 153  ASP153     -0.2456
    107  N         50.3820   -0.4810   87.8320 N.3   155  ASP155     -0.1239
    108  CA        49.6940    0.6300   87.1810 C.3   155  ASP155      0.1674
    109  C         50.3860    1.0330   85.8880 C.2   155  ASP155      0.2266
    110  O         51.6020    1.2230   85.8600 O.2   155  ASP155     -0.2867
    111  CB        49.6610    1.8650   88.0850 C.3   155  ASP155      0.1410
    112  CG        49.1030    1.5720   89.4600 C.2   155  ASP155      0.3668
    113  OD1       47.9690    1.0630   89.5440 O.co2 155  ASP155     -0.2456
    114  OD2       49.8040    1.8540   90.4540 O.co2 155  ASP155     -0.2456
    115  N         56.0100    3.0050   99.2940 N.3   187  SER187     -0.1217
    116  CA        56.0820    1.9240   98.3220 C.3   187  SER187      0.1889
    117  C         56.5950    2.3140   96.9420 C.2   187  SER187      0.2288
    118  O         57.0090    3.4500   96.6980 O.2   187  SER187     -0.2866
    119  CB        54.7020    1.3000   98.1510 C.3   187  SER187      0.2089
    120  OG        53.9140    2.0930   97.2810 O.3   187  SER187     -0.2183
    121  N         55.0310    2.9720   94.3050 N.3   189  ASN189     -0.1240
    122  CA        54.3110    4.0210   93.6010 C.3   189  ASN189      0.1653
    123  C         54.7200    5.4030   94.1140 C.2   189  ASN189      0.2266
    124  O         54.1050    6.4160   93.7710 O.2   189  ASN189     -0.2867
    125  CB        52.7900    3.8000   93.6990 C.3   189  ASN189      0.1155
    126  CG        52.2040    4.2580   95.0150 C.2   189  ASN189      0.2627
    127  OD1       52.9280    4.5610   95.9670 O.2   189  ASN189     -0.2716
    128  ND2       50.8770    4.3060   95.0780 N.am  189  ASN189     -0.0877
@<TRIPOS>BOND
     1    78    79    1
     2    80    81    2
     3    80    79    1
     4    79    82    1
     5   110   109    2
     6   109   108    1
     7    82    83    1
     8    83    84    1
     9   108   107    1
    10   108   111    1
    11    63    62    2
    12    60    61    1
    13   111   112    1
    14    84    85    1
    15    72    71    2
    16    71    70    1
    17    62    61    1
    18    61    64    1
    19    56    55    2
    20   112   113   ar
    21   112   114   ar
    22    85    86    1
    23    64    65    1
    24    69    70    1
    25    70    73    1
    26    55    54    1
    27    57    58    1
    28    57    59    1
    29    57    54    1
    30    65    66    1
    31    73    74    1
    32    68    66   am
    33    66    67    2
    34    54    53    1
    35   101   102    2
    36   101   100    1
    37    74    75    1
    38   100    99    1
    39   100   103    1
    40    76    75   ar
    41    87    88    1
    42    35    34    2
    43    75    77   ar
    44   103   104    1
    45   122   125    1
    46   122   123    1
    47   122   121    1
    48   125   126    1
    49   124   123    2
    50    39    38    2
    51    34    33    1
    52    34    36   am
    53    28    27    2
    54    33    32    1
    55    38    37    1
    56    88    91    1
    57    88    89    1
    58   105   104   ar
    59    92    91    1
    60   104   106   ar
    61    90    89    2
    62   126   128   am
    63   126   127    2
    64    36    37    1
    65    37    40    1
    66    89    93   am
    67    27    32   am
    68    27    26    1
    69    25    26    1
    70    47    48    1
    71    93    94    1
    72    26    29    1
    73    40    41    1
    74    51    48    1
    75    51    52    1
    76   118   117    2
    77    95    96    2
    78    95    94    1
    79    31    29    1
    80   117   116    1
    81   120   119    1
    82    94    97    1
    83    48    49    1
    84    29    30    1
    85    41    42    1
    86    97    98    1
    87   119   116    1
    88   116   115    1
    89    49    50    2
    90     8     6   ar
    91    42    43    1
    92     7     6   ar
    93     6     5    1
    94     5     2    1
    95    43    44    2
    96     2     1    1
    97     2     3    1
    98    45    44    1
    99    44    46    1
   100    16    14   ar
   101     3     4    2
   102    14    13    1
   103    14    15   ar
   104    13    10    1
   105     9    10    1
   106    12    11    2
   107    10    11    1
   108    11    17   am
   109    23    22    2
   110    22    21    1
   111    22    24   am
   112    17    18    1
   113    21    18    1
   114    19    18    1
   115    19    20    2
