@<TRIPOS>MOLECULE
tmp/2d32A01.pdb
 97 93 0 0 0
SMALL
GASTEIGER

@<TRIPOS>ATOM
      1  N         14.6240   22.3490   13.8270 N.3    60  ASP60      -0.1225
      2  CA        14.7110   23.3430   14.8920 C.3    60  ASP60       0.1805
      3  C         16.0810   23.1020   15.5900 C.2    60  ASP60       0.2597
      4  O         17.1110   23.1240   14.9250 O.2    60  ASP60      -0.2718
      5  CB        13.4840   23.2260   15.8210 C.3    60  ASP60       0.1424
      6  CG        13.4460   24.3080   16.9020 C.2    60  ASP60       0.3668
      7  OD1       13.0260   25.4420   16.5550 O.co2  60  ASP60      -0.2456
      8  OD2       13.8110   24.0390   18.0900 O.co2  60  ASP60      -0.2456
      9  N         16.0930   22.7850   16.8860 N.am   61  PHE61      -0.1976
     10  CA        17.3410   22.6150   17.6510 C.3    61  PHE61       0.1639
     11  C         18.2320   21.4340   17.2480 C.2    61  PHE61       0.2290
     12  O         19.4850   21.5660   17.0890 O.2    61  PHE61      -0.2864
     13  CB        17.0000   22.5270   19.1580 C.3    61  PHE61       0.0560
     14  CG        18.1500   22.1010   19.9970 C.ar   61  PHE61      -0.0200
     15  CD1       19.1130   23.0280   20.3900 C.ar   61  PHE61      -0.0042
     16  CD2       18.2910   20.7580   20.3800 C.ar   61  PHE61      -0.0042
     17  CE1       20.2170   22.6070   21.1470 C.ar   61  PHE61      -0.0003
     18  CE2       19.3620   20.3470   21.1130 C.ar   61  PHE61      -0.0003
     19  CZ        20.3450   21.2740   21.5070 C.ar   61  PHE61      -0.0000
     20  N         24.9580   28.4240   17.5110 N.3   131  TYR131     -0.1227
     21  CA        23.8660   28.9270   18.3320 C.3   131  TYR131      0.1736
     22  C         23.2680   27.7830   19.1270 C.2   131  TYR131      0.2595
     23  O         23.1060   27.8850   20.3410 O.2   131  TYR131     -0.2718
     24  CB        22.8060   29.6070   17.4750 C.3   131  TYR131      0.0548
     25  CG        21.5460   29.9420   18.2390 C.ar  131  TYR131     -0.0200
     26  CD1       21.5940   30.7480   19.3730 C.ar  131  TYR131     -0.0009
     27  CD2       20.2890   29.4420   17.8180 C.ar  131  TYR131     -0.0009
     28  CE1       20.4540   31.0570   20.0710 C.ar  131  TYR131      0.0417
     29  CE2       19.1530   29.7200   18.5270 C.ar  131  TYR131      0.0417
     30  CZ        19.2540   30.5300   19.6580 C.ar  131  TYR131      0.1957
     31  OH        18.1230   30.8440   20.3540 O.3   131  TYR131     -0.2866
     32  N         22.9880   26.6700   18.4550 N.am  132  ARG132     -0.1980
     33  CA        22.4500   25.4820   19.1230 C.3   132  ARG132      0.1597
     34  C         23.4350   24.8600   20.1200 C.2   132  ARG132      0.2287
     35  O         23.0270   24.4530   21.2240 O.2   132  ARG132     -0.2864
     36  CB        21.9660   24.4610   18.0740 C.3   132  ARG132      0.0334
     37  CG        20.7550   24.9410   17.3380 C.3   132  ARG132      0.0492
     38  CD        20.7740   24.4570   15.8860 C.3   132  ARG132      0.2205
     39  NE        19.4750   24.7320   15.2750 N.pl3 132  ARG132     -0.0865
     40  CZ        19.0880   25.9320   14.8230 C.cat 132  ARG132      0.5346
     41  NH1       19.9180   26.9920   14.8750 N.pl3 132  ARG132      0.1354
     42  NH2       17.8610   26.0800   14.3150 N.pl3 132  ARG132      0.1354
     43  N         23.0050   26.8640   23.0890 N.3   135  LEU135     -0.1245
     44  CA        21.7700   26.5680   23.8120 C.3   135  LEU135      0.1561
     45  C         21.9780   25.2930   24.6130 C.2   135  LEU135      0.2260
     46  O         21.6280   25.2070   25.7710 O.2   135  LEU135     -0.2867
     47  CB        20.6120   26.3790   22.8490 C.3   135  LEU135      0.0270
     48  CG        20.1770   27.6150   22.0750 C.3   135  LEU135      0.0019
     49  CD1       19.0890   27.1470   21.0750 C.3   135  LEU135      0.0001
     50  CD2       19.6780   28.7350   23.0050 C.3   135  LEU135      0.0001
     51  N         15.3340   20.9460   24.8000 N.3   144  GLN144     -0.1245
     52  CA        15.1500   21.5560   23.4910 C.3   144  GLN144      0.1566
     53  C         14.4300   20.5860   22.5880 C.2   144  GLN144      0.2260
     54  O         14.0340   20.9760   21.5090 O.2   144  GLN144     -0.2867
     55  CB        16.4760   21.9210   22.8110 C.3   144  GLN144      0.0367
     56  CG        17.5540   22.5500   23.6410 C.3   144  GLN144      0.0905
     57  CD        17.0630   23.7510   24.3410 C.2   144  GLN144      0.2608
     58  OE1       16.5890   24.7090   23.7010 O.2   144  GLN144     -0.2717
     59  NE2       17.1420   23.7300   25.6710 N.am  144  GLN144     -0.0878
     60  N          3.4480   26.8910   16.6870 N.3   150  HIS150     -0.1241
     61  CA         3.3190   28.3600   16.6810 C.3   150  HIS150      0.1621
     62  C          2.2380   28.7800   15.7420 C.2   150  HIS150      0.2264
     63  O          2.1540   28.3430   14.5950 O.2   150  HIS150     -0.2867
     64  CB         4.6340   29.0820   16.3290 C.3   150  HIS150      0.0745
     65  CG         5.7660   28.7440   17.2540 C.ar  150  HIS150      0.0817
     66  ND1        7.0870   28.9890   16.9390 N.ar  150  HIS150     -0.2268
     67  CD2        5.7700   28.1380   18.4770 C.ar  150  HIS150      0.1154
     68  CE1        7.8530   28.5750   17.9400 C.ar  150  HIS150      0.1986
     69  NE2        7.0830   28.0420   18.8730 N.ar  150  HIS150     -0.2212
     70  N         16.3730   35.3760   19.3030 N.3   289  ASN289     -0.1225
     71  CA        15.4480   34.2420   19.3260 C.3   289  ASN289      0.1785
     72  C         15.6090   33.4490   20.6040 C.2   289  ASN289      0.2597
     73  O         14.7500   32.6370   20.9300 O.2   289  ASN289     -0.2718
     74  CB        15.7430   33.2680   18.2030 C.3   289  ASN289      0.1169
     75  CG        15.2590   33.7330   16.8470 C.2   289  ASN289      0.2627
     76  OD1       14.4440   34.7000   16.6840 O.2   289  ASN289     -0.2716
     77  ND2       15.7710   33.0250   15.8170 N.am  289  ASN289     -0.0877
     78  N         16.7140   33.6750   21.3060 N.am  290  GLU290     -0.1979
     79  CA        17.0080   32.9740   22.5250 C.3   290  GLU290      0.1602
     80  C         16.0840   33.4130   23.6670 C.2   290  GLU290      0.2287
     81  O         15.9610   32.7010   24.6830 O.2   290  GLU290     -0.2864
     82  CB        18.4960   33.1080   22.9100 C.3   290  GLU290      0.0415
     83  CG        18.8030   32.4520   24.2100 C.3   290  GLU290      0.1163
     84  CD        20.2500   32.2660   24.4480 C.2   290  GLU290      0.3649
     85  OE1       21.0310   32.4570   23.4930 O.co2 290  GLU290     -0.2457
     86  OE2       20.6350   31.8890   25.5920 O.co2 290  GLU290     -0.2457
     87  N          2.9470   31.2150   20.9120 N.3   322  ARG322     -0.1245
     88  CA         3.8860   30.0630   20.9870 C.3   322  ARG322      0.1563
     89  C          3.5300   29.0120   22.0330 C.2   322  ARG322      0.2260
     90  O          4.2450   28.0480   22.2060 O.2   322  ARG322     -0.2867
     91  CB         5.3370   30.5510   21.1860 C.3   322  ARG322      0.0307
     92  CG         5.7170   31.5570   20.1010 C.3   322  ARG322      0.0489
     93  CD         6.7780   32.5040   20.5250 C.3   322  ARG322      0.2205
     94  NE         7.9650   31.7490   20.8930 N.pl3 322  ARG322     -0.0865
     95  CZ         8.9350   31.4250   20.0440 C.cat 322  ARG322      0.5346
     96  NH1        8.8680   31.7750   18.7790 N.pl3 322  ARG322      0.1354
     97  NH2        9.9710   30.7530   20.4800 N.pl3 322  ARG322      0.1354
@<TRIPOS>BOND
     1     1     2    1
     2    42    40    1
     3    63    62    2
     4    40    41    1
     5    40    39    2
     6     2     3    1
     7     2     5    1
     8     4     3    2
     9    39    38    1
    10     3     9   am
    11    62    61    1
    12    77    75   am
    13     5     6    1
    14    38    37    1
    15    64    61    1
    16    64    65    1
    17     7     6   ar
    18    61    60    1
    19    76    75    2
    20    75    74    1
    21     9    10    1
    22     6     8   ar
    23    66    65   ar
    24    66    68   ar
    25    12    11    2
    26    11    10    1
    27    65    67   ar
    28    37    36    1
    29    24    25    1
    30    24    21    1
    31    20    21    1
    32    10    13    1
    33    27    25   ar
    34    27    29   ar
    35    68    69   ar
    36    36    33    1
    37    74    71    1
    38    25    26   ar
    39    21    22    1
    40    32    33    1
    41    32    22   am
    42    67    69   ar
    43    29    30   ar
    44    96    95    1
    45    33    34    1
    46    22    23    2
    47    13    14    1
    48    70    71    1
    49    71    72    1
    50    26    28   ar
    51    30    28   ar
    52    30    31    1
    53    14    16   ar
    54    14    15   ar
    55    95    97    1
    56    95    94    2
    57    92    93    1
    58    92    91    1
    59    34    35    2
    60    16    18   ar
    61    15    17   ar
    62    93    94    1
    63    72    73    2
    64    72    78   am
    65    87    88    1
    66    88    91    1
    67    88    89    1
    68    49    48    1
    69    18    19   ar
    70    17    19   ar
    71    78    79    1
    72    54    53    2
    73    89    90    2
    74    48    47    1
    75    48    50    1
    76    79    82    1
    77    79    80    1
    78    53    52    1
    79    55    52    1
    80    55    56    1
    81    47    44    1
    82    82    83    1
    83    43    44    1
    84    52    51    1
    85    85    84   ar
    86    56    57    1
    87    80    81    2
    88    58    57    2
    89    44    45    1
    90    83    84    1
    91    57    59   am
    92    84    86   ar
    93    45    46    2
