@<TRIPOS>MOLECULE
tmp/2d32A02.pdb
 196 185 0 0 0
SMALL
GASTEIGER

@<TRIPOS>ATOM
      1  N         -4.8290   37.0120    8.3020 N.3    23  GLN23      -0.1245
      2  CA        -3.7340   36.2260    7.7330 C.3    23  GLN23       0.1566
      3  C         -3.1230   35.3250    8.8230 C.2    23  GLN23       0.2260
      4  O         -2.9900   35.7340    9.9680 O.2    23  GLN23      -0.2867
      5  CB        -2.6600   37.1290    7.1150 C.3    23  GLN23       0.0367
      6  CG        -3.1760   38.0370    6.0110 C.3    23  GLN23       0.0905
      7  CD        -3.4290   37.2840    4.7120 C.2    23  GLN23       0.2608
      8  OE1       -4.5930   37.0960    4.2840 O.2    23  GLN23      -0.2717
      9  NE2       -2.3470   36.8290    4.0810 N.am   23  GLN23      -0.0878
     10  N         -0.3010   31.7950    9.8130 N.3    25  GLY25      -0.1210
     11  CA         0.6700   30.7930    9.4130 C.3    25  GLY25       0.1956
     12  C          0.8820   29.8400   10.5580 C.2    25  GLY25       0.2612
     13  O          0.6710   30.1990   11.7120 O.2    25  GLY25      -0.2717
     14  N          1.3040   28.6210   10.2590 N.am   26  LEU26      -0.1965
     15  CA         1.5720   27.6400   11.3230 C.3    26  LEU26       0.1728
     16  C          2.9700   27.1290   11.2400 C.2    26  LEU26       0.2616
     17  O          3.4870   26.8980   10.1570 O.2    26  LEU26      -0.2715
     18  CB         0.6260   26.4510   11.2370 C.3    26  LEU26       0.0311
     19  CG        -0.8290   26.6740   11.6830 C.3    26  LEU26       0.0022
     20  CD1       -1.7050   25.4930   11.2120 C.3    26  LEU26       0.0001
     21  CD2       -0.9000   26.8010   13.2330 C.3    26  LEU26       0.0001
     22  N          3.5760   26.8920   12.3970 N.am   27  GLU27      -0.1977
     23  CA         4.8120   26.0990   12.4490 C.3    27  GLU27       0.1602
     24  C          4.5370   24.9710   13.3780 C.2    27  GLU27       0.2287
     25  O          3.8460   25.1800   14.3540 O.2    27  GLU27      -0.2864
     26  CB         5.9490   26.9210   13.0070 C.3    27  GLU27       0.0415
     27  CG         6.1600   28.2450   12.2850 C.3    27  GLU27       0.1163
     28  CD         6.9190   29.2240   13.1680 C.2    27  GLU27       0.3649
     29  OE1        8.1120   28.9650   13.4610 O.co2  27  GLU27      -0.2457
     30  OE2        6.3230   30.2430   13.5860 O.co2  27  GLU27      -0.2457
     31  N          6.5860   21.5040   15.1790 N.3    29  GLU29      -0.1245
     32  CA         7.7950   20.7150   15.3250 C.3    29  GLU29       0.1567
     33  C          7.4620   19.2660   15.6980 C.2    29  GLU29       0.2260
     34  O          6.4850   19.0110   16.4150 O.2    29  GLU29      -0.2867
     35  CB         8.7270   21.3280   16.3830 C.3    29  GLU29       0.0388
     36  CG         9.0280   22.8210   16.1880 C.3    29  GLU29       0.1160
     37  CD         9.4560   23.5410   17.4720 C.2    29  GLU29       0.3649
     38  OE1        9.0180   23.1780   18.5740 O.co2  29  GLU29      -0.2457
     39  OE2       10.2390   24.5030   17.3900 O.co2  29  GLU29      -0.2457
     40  N         14.6240   22.3490   13.8270 N.3    60  ASP60      -0.1239
     41  CA        14.7110   23.3430   14.8920 C.3    60  ASP60       0.1674
     42  C         16.0810   23.1020   15.5900 C.2    60  ASP60       0.2266
     43  O         17.1110   23.1240   14.9250 O.2    60  ASP60      -0.2867
     44  CB        13.4840   23.2260   15.8210 C.3    60  ASP60       0.1410
     45  CG        13.4460   24.3080   16.9020 C.2    60  ASP60       0.3668
     46  OD1       13.0260   25.4420   16.5550 O.co2  60  ASP60      -0.2456
     47  OD2       13.8110   24.0390   18.0900 O.co2  60  ASP60      -0.2456
     48  N         10.7460   20.7520   11.5030 N.3    67  GLU67      -0.1245
     49  CA         9.8250   21.8190   11.6580 C.3    67  GLU67       0.1567
     50  C          9.1650   22.1430   10.2960 C.2    67  GLU67       0.2260
     51  O          9.8430   22.2840    9.2960 O.2    67  GLU67      -0.2867
     52  CB        10.5320   23.0150   12.2370 C.3    67  GLU67       0.0388
     53  CG         9.6030   24.1650   12.3210 C.3    67  GLU67       0.1160
     54  CD        10.2550   25.3450   12.9980 C.2    67  GLU67       0.3649
     55  OE1       11.0200   25.1270   13.9710 O.co2  67  GLU67      -0.2457
     56  OE2       10.0050   26.4880   12.5640 O.co2  67  GLU67      -0.2457
     57  N          6.4870   24.6410    8.1480 N.3    69  ILE69      -0.1231
     58  CA         6.0970   26.0650    8.1530 C.3    69  ILE69       0.1692
     59  C          5.2060   26.3210    6.9640 C.2    69  ILE69       0.2593
     60  O          5.6100   26.1040    5.8190 O.2    69  ILE69      -0.2718
     61  CB         7.3580   26.9690    8.0840 C.3    69  ILE69       0.0266
     62  CG1        8.3520   26.5100    9.1660 C.3    69  ILE69       0.0019
     63  CG2        7.0170   28.4630    8.3060 C.3    69  ILE69       0.0020
     64  CD1        9.7240   26.9500    8.9370 C.3    69  ILE69       0.0001
     65  N          3.9660   26.7090    7.2190 N.am   70  THR70      -0.1940
     66  CA         3.1050   27.1290    6.1310 C.3    70  THR70       0.2013
     67  C          3.3560   28.6060    5.7390 C.2    70  THR70       0.2484
     68  O          3.5210   29.4690    6.6030 O.2    70  THR70      -0.2729
     69  CB         1.6010   26.9390    6.4600 C.3    70  THR70       0.1807
     70  OG1        1.1950   27.8840    7.4690 O.3    70  THR70      -0.2208
     71  CG2        1.3050   25.5260    6.8780 C.3    70  THR70       0.0379
     72  N          3.3290   28.9080    4.4290 N.am   71  PRO71      -0.2715
     73  CA         3.3180   30.3170    3.9260 C.3    71  PRO71       0.1536
     74  C          2.0830   31.0790    4.4040 C.2    71  PRO71       0.2598
     75  O          1.0150   30.4770    4.5580 O.2    71  PRO71      -0.2715
     76  CB         3.2320   30.1440    2.3960 C.3    71  PRO71       0.0310
     77  CG         3.6560   28.7310    2.1210 C.3    71  PRO71       0.0237
     78  CD         3.2410   27.9250    3.3370 C.3    71  PRO71       0.0939
     79  N          2.1940   32.3880    4.6340 N.am   72  VAL72      -0.1978
     80  CA         1.0640   33.1380    5.1980 C.3    72  VAL72       0.1596
     81  C         -0.1440   32.9190    4.2890 C.2    72  VAL72       0.2287
     82  O         -0.0100   32.8540    3.0630 O.2    72  VAL72      -0.2864
     83  CB         1.4310   34.6410    5.4810 C.3    72  VAL72       0.0276
     84  CG1        2.0450   35.2930    4.2430 C.3    72  VAL72       0.0022
     85  CG2        0.2570   35.4260    5.9690 C.3    72  VAL72       0.0022
     86  N          3.4480   26.8910   16.6870 N.3   150  HIS150     -0.1241
     87  CA         3.3190   28.3600   16.6810 C.3   150  HIS150      0.1621
     88  C          2.2380   28.7800   15.7420 C.2   150  HIS150      0.2264
     89  O          2.1540   28.3430   14.5950 O.2   150  HIS150     -0.2867
     90  CB         4.6340   29.0820   16.3290 C.3   150  HIS150      0.0745
     91  CG         5.7660   28.7440   17.2540 C.ar  150  HIS150      0.0817
     92  ND1        7.0870   28.9890   16.9390 N.ar  150  HIS150     -0.2268
     93  CD2        5.7700   28.1380   18.4770 C.ar  150  HIS150      0.1154
     94  CE1        7.8530   28.5750   17.9400 C.ar  150  HIS150      0.1986
     95  NE2        7.0830   28.0420   18.8730 N.ar  150  HIS150     -0.2212
     96  N          0.8210   32.0320   13.9550 N.3   152  ASN152     -0.1225
     97  CA         1.1010   33.3970   13.5250 C.3   152  ASN152      0.1785
     98  C         -0.1490   34.0600   12.9970 C.2   152  ASN152      0.2597
     99  O         -0.8880   33.4620   12.2380 O.2   152  ASN152     -0.2718
    100  CB         2.2180   33.3790   12.4990 C.3   152  ASN152      0.1169
    101  CG         3.4910   32.7020   13.0600 C.2   152  ASN152      0.2627
    102  OD1        4.2650   33.3430   13.7300 O.2   152  ASN152     -0.2716
    103  ND2        3.6640   31.3920   12.8230 N.am  152  ASN152     -0.0877
    104  N         -0.4210   35.2820   13.4450 N.am  153  PHE153     -0.1962
    105  CA        -1.7160   35.8890   13.1970 C.3   153  PHE153      0.1771
    106  C         -1.5920   37.3950   12.9620 C.2   153  PHE153      0.2620
    107  O         -0.8330   38.0750   13.6440 O.2   153  PHE153     -0.2715
    108  CB        -2.5920   35.5950   14.4150 C.3   153  PHE153      0.0574
    109  CG        -3.8020   36.4520   14.5320 C.ar  153  PHE153     -0.0200
    110  CD1       -3.7250   37.7000   15.1570 C.ar  153  PHE153     -0.0042
    111  CD2       -5.0550   35.9930   14.0550 C.ar  153  PHE153     -0.0042
    112  CE1       -4.8790   38.4890   15.3040 C.ar  153  PHE153     -0.0003
    113  CE2       -6.2190   36.7850   14.1890 C.ar  153  PHE153     -0.0003
    114  CZ        -6.1310   38.0230   14.8030 C.ar  153  PHE153     -0.0000
    115  N         -2.2800   37.9090   11.9480 N.am  154  SER154     -0.1950
    116  CA        -2.3620   39.3720   11.7630 C.3   154  SER154      0.1924
    117  C         -3.7630   39.7680   11.3640 C.2   154  SER154      0.2314
    118  O         -4.4010   39.0650   10.5850 O.2   154  SER154     -0.2863
    119  CB        -1.3700   39.9000   10.7110 C.3   154  SER154      0.2116
    120  OG        -1.5220   39.2280    9.4730 O.3   154  SER154     -0.2180
    121  N         16.3730   35.3760   19.3030 N.3   289  ASN289     -0.1240
    122  CA        15.4480   34.2420   19.3260 C.3   289  ASN289      0.1653
    123  C         15.6090   33.4490   20.6040 C.2   289  ASN289      0.2266
    124  O         14.7500   32.6370   20.9300 O.2   289  ASN289     -0.2867
    125  CB        15.7430   33.2680   18.2030 C.3   289  ASN289      0.1155
    126  CG        15.2590   33.7330   16.8470 C.2   289  ASN289      0.2627
    127  OD1       14.4440   34.7000   16.6840 O.2   289  ASN289     -0.2716
    128  ND2       15.7710   33.0250   15.8170 N.am  289  ASN289     -0.0877
    129  N          5.0760   36.6010   20.8310 N.3   296  ARG296     -0.1245
    130  CA         6.1410   37.4180   20.3130 C.3   296  ARG296      0.1563
    131  C          5.6170   38.3770   19.2420 C.2   296  ARG296      0.2260
    132  O          4.8610   37.9650   18.3580 O.2   296  ARG296     -0.2867
    133  CB         7.1930   36.4820   19.7330 C.3   296  ARG296      0.0307
    134  CG         8.5240   37.0470   19.6120 C.3   296  ARG296      0.0489
    135  CD         9.4660   35.9970   19.0370 C.3   296  ARG296      0.2205
    136  NE        10.1570   35.2500   20.0750 N.pl3 296  ARG296     -0.0865
    137  CZ        11.0090   34.2590   19.8240 C.cat 296  ARG296      0.5346
    138  NH1       11.2540   33.8940   18.5550 N.pl3 296  ARG296      0.1354
    139  NH2       11.6100   33.6380   20.8280 N.pl3 296  ARG296      0.1354
    140  N          6.1060   40.4380   15.8550 N.3   298  LYS298     -0.1245
    141  CA         6.9470   40.1770   14.7050 C.3   298  LYS298      0.1561
    142  C          6.7700   41.1350   13.5570 C.2   298  LYS298      0.2260
    143  O          5.7200   41.7450   13.3880 O.2   298  LYS298     -0.2867
    144  CB         6.7280   38.7450   14.1930 C.3   298  LYS298      0.0271
    145  CG         6.8310   37.7190   15.3250 C.3   298  LYS298      0.0035
    146  CD         7.6360   36.5350   14.9210 C.3   298  LYS298      0.0206
    147  CE         9.0600   36.7400   15.1200 C.3   298  LYS298      0.1093
    148  NZ         9.7440   35.5300   14.5920 N.3   298  LYS298     -0.1314
    149  N          8.3360   40.5650    9.4430 N.3   300  VAL300     -0.1245
    150  CA         9.2780   39.9080    8.5130 C.3   300  VAL300      0.1561
    151  C         10.5460   40.7570    8.3050 C.2   300  VAL300      0.2260
    152  O         10.4490   41.9520    8.0490 O.2   300  VAL300     -0.2867
    153  CB         8.6030   39.6510    7.1520 C.3   300  VAL300      0.0252
    154  CG1        9.6350   39.0630    6.1410 C.3   300  VAL300      0.0019
    155  CG2        7.3970   38.7050    7.3270 C.3   300  VAL300      0.0019
    156  N          4.0910   43.9220   12.7540 N.3   317  GLU317     -0.1231
    157  CA         3.3460   43.4370   11.5950 C.3   317  GLU317      0.1699
    158  C          2.3680   42.3410   11.9590 C.2   317  GLU317      0.2592
    159  O          1.2550   42.3040   11.4660 O.2   317  GLU317     -0.2718
    160  CB         4.3060   42.9170   10.5500 C.3   317  GLU317      0.0402
    161  CG         3.6040   42.3960    9.3240 C.3   317  GLU317      0.1161
    162  CD         4.5780   41.7590    8.3280 C.2   317  GLU317      0.3649
    163  OE1        5.7690   41.4970    8.6400 O.co2 317  GLU317     -0.2457
    164  OE2        4.1230   41.4790    7.2110 O.co2 317  GLU317     -0.2457
    165  N          2.7900   41.4340   12.8290 N.am  318  TYR318     -0.1976
    166  CA         1.9360   40.3180   13.2050 C.3   318  TYR318      0.1639
    167  C          2.4050   39.7220   14.5420 C.2   318  TYR318      0.2290
    168  O          3.4840   40.0650   15.0430 O.2   318  TYR318     -0.2864
    169  CB         1.8540   39.2640   12.0730 C.3   318  TYR318      0.0560
    170  CG         3.1040   38.4610   11.8790 C.ar  318  TYR318     -0.0198
    171  CD1        4.1600   38.9390   11.0690 C.ar  318  TYR318     -0.0009
    172  CD2        3.2270   37.1720   12.4770 C.ar  318  TYR318     -0.0009
    173  CE1        5.3310   38.1800   10.8820 C.ar  318  TYR318      0.0417
    174  CE2        4.3820   36.4020   12.3040 C.ar  318  TYR318      0.0417
    175  CZ         5.4290   36.9030   11.5080 C.ar  318  TYR318      0.1957
    176  OH         6.5720   36.1230   11.3560 O.3   318  TYR318     -0.2866
    177  N          3.0850   36.1720   16.9830 N.3   320  GLU320     -0.1245
    178  CA         3.2990   34.7440   17.0370 C.3   320  GLU320      0.1567
    179  C          2.8940   34.2150   18.3870 C.2   320  GLU320      0.2260
    180  O          3.5060   34.5420   19.3980 O.2   320  GLU320     -0.2867
    181  CB         4.7720   34.4440   16.7990 C.3   320  GLU320      0.0388
    182  CG         5.1460   32.9860   16.9000 C.3   320  GLU320      0.1160
    183  CD         6.6470   32.8020   16.8370 C.2   320  GLU320      0.3649
    184  OE1        7.3870   33.6020   17.4260 O.co2 320  GLU320     -0.2457
    185  OE2        7.1060   31.8700   16.1730 O.co2 320  GLU320     -0.2457
    186  N          2.9470   31.2150   20.9120 N.3   322  ARG322     -0.1245
    187  CA         3.8860   30.0630   20.9870 C.3   322  ARG322      0.1563
    188  C          3.5300   29.0120   22.0330 C.2   322  ARG322      0.2260
    189  O          4.2450   28.0480   22.2060 O.2   322  ARG322     -0.2867
    190  CB         5.3370   30.5510   21.1860 C.3   322  ARG322      0.0307
    191  CG         5.7170   31.5570   20.1010 C.3   322  ARG322      0.0489
    192  CD         6.7780   32.5040   20.5250 C.3   322  ARG322      0.2205
    193  NE         7.9650   31.7490   20.8930 N.pl3 322  ARG322     -0.0865
    194  CZ         8.9350   31.4250   20.0440 C.cat 322  ARG322      0.5346
    195  NH1        8.8680   31.7750   18.7790 N.pl3 322  ARG322      0.1354
    196  NH2        9.9710   30.7530   20.4800 N.pl3 322  ARG322      0.1354
@<TRIPOS>BOND
     1    77    76    1
     2    77    78    1
     3    76    73    1
     4    82    81    2
     5    78    72    1
     6    73    74    1
     7    73    72    1
     8     9     7   am
     9    84    83    1
    10     8     7    2
    11    81    80    1
    12    74    75    2
    13    74    79   am
    14    72    67   am
    15    79    80    1
    16     7     6    1
    17    80    83    1
    18    83    85    1
    19    67    66    1
    20    67    68    2
    21    60    59    2
    22     6     5    1
    23    66    69    1
    24    66    65    1
    25   154   153    1
    26    69    71    1
    27    69    70    1
    28    59    65   am
    29    59    58    1
    30     5     2    1
    31   153   155    1
    32   153   150    1
    33   164   162   ar
    34     2     1    1
    35     2     3    1
    36   152   151    2
    37    61    58    1
    38    61    63    1
    39    61    62    1
    40    57    58    1
    41   151   150    1
    42   162   163   ar
    43   162   161    1
    44   150   149    1
    45     3     4    2
    46    64    62    1
    47    51    50    2
    48   161   160    1
    49    11    10    1
    50    11    12    1
    51   120   119    1
    52    17    16    2
    53    14    12   am
    54    14    15    1
    55    50    49    1
    56   160   157    1
    57    12    13    2
    58   118   117    2
    59   119   116    1
    60   173   171   ar
    61   173   175   ar
    62   171   170   ar
    63    20    19    1
    64    18    15    1
    65    18    19    1
    66    16    15    1
    67    16    22   am
    68   176   175    1
    69   117   116    1
    70   159   158    2
    71    48    49    1
    72   175   174   ar
    73   157   158    1
    74   157   156    1
    75    49    52    1
    76    19    21    1
    77   116   115    1
    78   170   169    1
    79   170   172   ar
    80   115   106   am
    81   158   165   am
    82   169   166    1
    83    52    53    1
    84    99    98    2
    85    27    26    1
    86    27    28    1
    87   174   172   ar
    88    53    54    1
    89    22    23    1
    90    23    26    1
    91    23    24    1
    92   100   101    1
    93   100    97    1
    94    56    54   ar
    95   103   101   am
    96   165   166    1
    97   106   105    1
    98   106   107    2
    99    98   104   am
   100    98    97    1
   101    54    55   ar
   102   101   102    2
   103    28    29   ar
   104    28    30   ar
   105   105   104    1
   106   105   108    1
   107   166   167    1
   108    24    25    2
   109   143   142    2
   110    97    96    1
   111   142   141    1
   112    40    41    1
   113   111   113   ar
   114   111   109   ar
   115   113   114   ar
   116   144   141    1
   117   144   145    1
   118   108   109    1
   119   109   110   ar
   120   167   168    2
   121   148   147    1
   122    89    88    2
   123   141   140    1
   124   114   112   ar
   125    41    42    1
   126    41    44    1
   127   146   147    1
   128   146   145    1
   129    43    42    2
   130   110   112   ar
   131    31    32    1
   132    32    33    1
   133    32    35    1
   134    33    34    2
   135    88    87    1
   136   128   126   am
   137    44    45    1
   138   185   183   ar
   139    36    35    1
   140    36    37    1
   141    90    87    1
   142    90    91    1
   143    46    45   ar
   144    87    86    1
   145   127   126    2
   146   181   182    1
   147   181   178    1
   148   183   182    1
   149   183   184   ar
   150   126   125    1
   151    45    47   ar
   152    92    91   ar
   153    92    94   ar
   154   177   178    1
   155   178   179    1
   156    91    93   ar
   157    39    37   ar
   158    37    38   ar
   159    94    95   ar
   160   125   122    1
   161   132   131    2
   162   179   180    2
   163    93    95   ar
   164   138   137    1
   165   195   194    1
   166   135   134    1
   167   135   136    1
   168   131   130    1
   169   121   122    1
   170   122   123    1
   171   134   133    1
   172   133   130    1
   173   137   136    2
   174   137   139    1
   175   194   196    1
   176   194   193    2
   177   191   192    1
   178   191   190    1
   179   130   129    1
   180   192   193    1
   181   123   124    2
   182   186   187    1
   183   187   190    1
   184   187   188    1
   185   188   189    2
