@<TRIPOS>MOLECULE
tmp/2d32A00.pdb
 121 110 0 0 0
SMALL
GASTEIGER

@<TRIPOS>ATOM
      1  N          3.5760   26.8920   12.3970 N.3    27  GLU27      -0.1245
      2  CA         4.8120   26.0990   12.4490 C.3    27  GLU27       0.1567
      3  C          4.5370   24.9710   13.3780 C.2    27  GLU27       0.2260
      4  O          3.8460   25.1800   14.3540 O.2    27  GLU27      -0.2867
      5  CB         5.9490   26.9210   13.0070 C.3    27  GLU27       0.0388
      6  CG         6.1600   28.2450   12.2850 C.3    27  GLU27       0.1160
      7  CD         6.9190   29.2240   13.1680 C.2    27  GLU27       0.3649
      8  OE1        8.1120   28.9650   13.4610 O.co2  27  GLU27      -0.2457
      9  OE2        6.3230   30.2430   13.5860 O.co2  27  GLU27      -0.2457
     10  N          6.5860   21.5040   15.1790 N.3    29  GLU29      -0.1245
     11  CA         7.7950   20.7150   15.3250 C.3    29  GLU29       0.1567
     12  C          7.4620   19.2660   15.6980 C.2    29  GLU29       0.2260
     13  O          6.4850   19.0110   16.4150 O.2    29  GLU29      -0.2867
     14  CB         8.7270   21.3280   16.3830 C.3    29  GLU29       0.0388
     15  CG         9.0280   22.8210   16.1880 C.3    29  GLU29       0.1160
     16  CD         9.4560   23.5410   17.4720 C.2    29  GLU29       0.3649
     17  OE1        9.0180   23.1780   18.5740 O.co2  29  GLU29      -0.2457
     18  OE2       10.2390   24.5030   17.3900 O.co2  29  GLU29      -0.2457
     19  N         14.6240   22.3490   13.8270 N.3    60  ASP60      -0.1239
     20  CA        14.7110   23.3430   14.8920 C.3    60  ASP60       0.1674
     21  C         16.0810   23.1020   15.5900 C.2    60  ASP60       0.2266
     22  O         17.1110   23.1240   14.9250 O.2    60  ASP60      -0.2867
     23  CB        13.4840   23.2260   15.8210 C.3    60  ASP60       0.1410
     24  CG        13.4460   24.3080   16.9020 C.2    60  ASP60       0.3668
     25  OD1       13.0260   25.4420   16.5550 O.co2  60  ASP60      -0.2456
     26  OD2       13.8110   24.0390   18.0900 O.co2  60  ASP60      -0.2456
     27  N         14.9120   17.0330   14.9370 N.3    65  LEU65      -0.1245
     28  CA        13.7220   17.8280   15.1790 C.3    65  LEU65       0.1561
     29  C         13.2600   18.5900   13.9210 C.2    65  LEU65       0.2260
     30  O         13.7530   19.6490   13.6050 O.2    65  LEU65      -0.2867
     31  CB        13.9100   18.7260   16.4000 C.3    65  LEU65       0.0270
     32  CG        12.7610   19.5590   16.9970 C.3    65  LEU65       0.0019
     33  CD1       11.5050   18.7010   17.3250 C.3    65  LEU65       0.0001
     34  CD2       13.2880   20.2250   18.2570 C.3    65  LEU65       0.0001
     35  N         10.7460   20.7520   11.5030 N.3    67  GLU67      -0.1245
     36  CA         9.8250   21.8190   11.6580 C.3    67  GLU67       0.1567
     37  C          9.1650   22.1430   10.2960 C.2    67  GLU67       0.2260
     38  O          9.8430   22.2840    9.2960 O.2    67  GLU67      -0.2867
     39  CB        10.5320   23.0150   12.2370 C.3    67  GLU67       0.0388
     40  CG         9.6030   24.1650   12.3210 C.3    67  GLU67       0.1160
     41  CD        10.2550   25.3450   12.9980 C.2    67  GLU67       0.3649
     42  OE1       11.0200   25.1270   13.9710 O.co2  67  GLU67      -0.2457
     43  OE2       10.0050   26.4880   12.5640 O.co2  67  GLU67      -0.2457
     44  N         15.3340   20.9460   24.8000 N.3   144  GLN144     -0.1245
     45  CA        15.1500   21.5560   23.4910 C.3   144  GLN144      0.1566
     46  C         14.4300   20.5860   22.5880 C.2   144  GLN144      0.2260
     47  O         14.0340   20.9760   21.5090 O.2   144  GLN144     -0.2867
     48  CB        16.4760   21.9210   22.8110 C.3   144  GLN144      0.0367
     49  CG        17.5540   22.5500   23.6410 C.3   144  GLN144      0.0905
     50  CD        17.0630   23.7510   24.3410 C.2   144  GLN144      0.2608
     51  OE1       16.5890   24.7090   23.7010 O.2   144  GLN144     -0.2717
     52  NE2       17.1420   23.7300   25.6710 N.am  144  GLN144     -0.0878
     53  N         11.6180   19.0910   23.4100 N.3   146  ILE146     -0.1231
     54  CA        10.2120   19.3000   23.6450 C.3   146  ILE146      0.1692
     55  C          9.6650   20.1760   22.5180 C.2   146  ILE146      0.2593
     56  O         10.2860   21.1550   22.1200 O.2   146  ILE146     -0.2718
     57  CB         9.9830   19.9700   25.0110 C.3   146  ILE146      0.0266
     58  CG1       10.4810   19.0430   26.1410 C.3   146  ILE146      0.0019
     59  CG2        8.5050   20.4010   25.1720 C.3   146  ILE146      0.0020
     60  CD1       10.5030   19.7220   27.5550 C.3   146  ILE146      0.0001
     61  N          8.5080   19.8230   21.9850 N.am  147  SER147     -0.1938
     62  CA         8.0450   20.4900   20.7910 C.3   147  SER147      0.2055
     63  C          6.7000   21.1470   20.9630 C.2   147  SER147      0.2643
     64  O          5.9550   20.8400   21.9090 O.2   147  SER147     -0.2714
     65  CB         8.0260   19.5270   19.6140 C.3   147  SER147      0.2130
     66  OG         7.2580   18.4190   19.9560 O.3   147  SER147     -0.2179
     67  N          6.3970   22.0740   20.0440 N.am  148  GLY148     -0.1954
     68  CA         5.1280   22.7740   20.0830 C.3   148  GLY148      0.1869
     69  C          4.7260   23.3040   18.7140 C.2   148  GLY148      0.2309
     70  O          5.3600   23.0210   17.6820 O.2   148  GLY148     -0.2863
     71  N          3.4480   26.8910   16.6870 N.3   150  HIS150     -0.1241
     72  CA         3.3190   28.3600   16.6810 C.3   150  HIS150      0.1621
     73  C          2.2380   28.7800   15.7420 C.2   150  HIS150      0.2264
     74  O          2.1540   28.3430   14.5950 O.2   150  HIS150     -0.2867
     75  CB         4.6340   29.0820   16.3290 C.3   150  HIS150      0.0745
     76  CG         5.7660   28.7440   17.2540 C.ar  150  HIS150      0.0817
     77  ND1        7.0870   28.9890   16.9390 N.ar  150  HIS150     -0.2268
     78  CD2        5.7700   28.1380   18.4770 C.ar  150  HIS150      0.1154
     79  CE1        7.8530   28.5750   17.9400 C.ar  150  HIS150      0.1986
     80  NE2        7.0830   28.0420   18.8730 N.ar  150  HIS150     -0.2212
     81  N          4.9120   21.2670   29.5670 N.3   227  ARG227     -0.1245
     82  CA         5.7800   21.9670   28.6060 C.3   227  ARG227      0.1563
     83  C          5.9720   23.4790   28.9200 C.2   227  ARG227      0.2260
     84  O          7.0550   24.0140   28.7690 O.2   227  ARG227     -0.2867
     85  CB         5.2180   21.7700   27.2190 C.3   227  ARG227      0.0307
     86  CG         5.8250   22.6840   26.1910 C.3   227  ARG227      0.0489
     87  CD         5.2420   22.3940   24.8230 C.3   227  ARG227      0.2205
     88  NE         5.5450   23.4700   23.8920 N.pl3 227  ARG227     -0.0865
     89  CZ         4.7710   24.5330   23.7210 C.cat 227  ARG227      0.5346
     90  NH1        3.6110   24.6320   24.3740 N.pl3 227  ARG227      0.1354
     91  NH2        5.1240   25.4640   22.8700 N.pl3 227  ARG227      0.1354
     92  N         16.3730   35.3760   19.3030 N.3   289  ASN289     -0.1240
     93  CA        15.4480   34.2420   19.3260 C.3   289  ASN289      0.1653
     94  C         15.6090   33.4490   20.6040 C.2   289  ASN289      0.2266
     95  O         14.7500   32.6370   20.9300 O.2   289  ASN289     -0.2867
     96  CB        15.7430   33.2680   18.2030 C.3   289  ASN289      0.1155
     97  CG        15.2590   33.7330   16.8470 C.2   289  ASN289      0.2627
     98  OD1       14.4440   34.7000   16.6840 O.2   289  ASN289     -0.2716
     99  ND2       15.7710   33.0250   15.8170 N.am  289  ASN289     -0.0877
    100  N          5.0760   36.6010   20.8310 N.3   296  ARG296     -0.1245
    101  CA         6.1410   37.4180   20.3130 C.3   296  ARG296      0.1563
    102  C          5.6170   38.3770   19.2420 C.2   296  ARG296      0.2260
    103  O          4.8610   37.9650   18.3580 O.2   296  ARG296     -0.2867
    104  CB         7.1930   36.4820   19.7330 C.3   296  ARG296      0.0307
    105  CG         8.5240   37.0470   19.6120 C.3   296  ARG296      0.0489
    106  CD         9.4660   35.9970   19.0370 C.3   296  ARG296      0.2205
    107  NE        10.1570   35.2500   20.0750 N.pl3 296  ARG296     -0.0865
    108  CZ        11.0090   34.2590   19.8240 C.cat 296  ARG296      0.5346
    109  NH1       11.2540   33.8940   18.5550 N.pl3 296  ARG296      0.1354
    110  NH2       11.6100   33.6380   20.8280 N.pl3 296  ARG296      0.1354
    111  N          2.9470   31.2150   20.9120 N.3   322  ARG322     -0.1245
    112  CA         3.8860   30.0630   20.9870 C.3   322  ARG322      0.1563
    113  C          3.5300   29.0120   22.0330 C.2   322  ARG322      0.2260
    114  O          4.2450   28.0480   22.2060 O.2   322  ARG322     -0.2867
    115  CB         5.3370   30.5510   21.1860 C.3   322  ARG322      0.0307
    116  CG         5.7170   31.5570   20.1010 C.3   322  ARG322      0.0489
    117  CD         6.7780   32.5040   20.5250 C.3   322  ARG322      0.2205
    118  NE         7.9650   31.7490   20.8930 N.pl3 322  ARG322     -0.0865
    119  CZ         8.9350   31.4250   20.0440 C.cat 322  ARG322      0.5346
    120  NH1        8.8680   31.7750   18.7790 N.pl3 322  ARG322      0.1354
    121  NH2        9.9710   30.7530   20.4800 N.pl3 322  ARG322      0.1354
@<TRIPOS>BOND
     1    38    37    2
     2    37    36    1
     3    35    36    1
     4    36    39    1
     5    39    40    1
     6     6     5    1
     7     6     7    1
     8    40    41    1
     9     1     2    1
    10     2     5    1
    11     2     3    1
    12    43    41   ar
    13    41    42   ar
    14     7     8   ar
    15     7     9   ar
    16     3     4    2
    17    30    29    2
    18    19    20    1
    19    29    28    1
    20    74    73    2
    21    20    21    1
    22    20    23    1
    23    22    21    2
    24    27    28    1
    25    10    11    1
    26    28    31    1
    27    11    12    1
    28    11    14    1
    29    12    13    2
    30    73    72    1
    31    99    97   am
    32    23    24    1
    33    15    14    1
    34    15    16    1
    35    75    72    1
    36    75    76    1
    37    31    32    1
    38    25    24   ar
    39    72    71    1
    40    98    97    2
    41    97    96    1
    42    24    26   ar
    43    77    76   ar
    44    77    79   ar
    45    32    33    1
    46    32    34    1
    47    76    78   ar
    48    18    16   ar
    49    16    17   ar
    50    70    69    2
    51    79    80   ar
    52    96    93    1
    53   103   102    2
    54    78    80   ar
    55   109   108    1
    56    69    68    1
    57   120   119    1
    58   106   105    1
    59   106   107    1
    60   102   101    1
    61    92    93    1
    62    93    94    1
    63   105   104    1
    64    65    66    1
    65    65    62    1
    66   104   101    1
    67   108   107    2
    68   108   110    1
    69    67    68    1
    70    67    63   am
    71   119   121    1
    72   119   118    2
    73   116   117    1
    74   116   115    1
    75   101   100    1
    76   117   118    1
    77    94    95    2
    78    62    63    1
    79    62    61    1
    80   111   112    1
    81    63    64    2
    82   112   115    1
    83   112   113    1
    84    47    46    2
    85    61    55   am
    86   113   114    2
    87    56    55    2
    88    55    54    1
    89    46    45    1
    90    48    45    1
    91    48    49    1
    92    91    89    1
    93    53    54    1
    94    45    44    1
    95    49    50    1
    96    54    57    1
    97    51    50    2
    98    89    88    2
    99    89    90    1
   100    88    87    1
   101    50    52   am
   102    87    86    1
   103    57    59    1
   104    57    58    1
   105    58    60    1
   106    86    85    1
   107    85    82    1
   108    82    83    1
   109    82    81    1
   110    84    83    2
