@<TRIPOS>MOLECULE
tmp/2d33C02.pdb
 179 170 0 0 0
SMALL
GASTEIGER

@<TRIPOS>ATOM
      1  N         50.3930   56.7490   27.2470 N.3    23  GLN23      -0.1245
      2  CA        51.0400   55.4810   26.9110 C.3    23  GLN23       0.1566
      3  C         51.2720   55.4070   25.4020 C.2    23  GLN23       0.2260
      4  O         50.4350   55.8730   24.6110 O.2    23  GLN23      -0.2867
      5  CB        50.1680   54.2970   27.3180 C.3    23  GLN23       0.0367
      6  CG        49.8350   54.1810   28.7830 C.3    23  GLN23       0.0905
      7  CD        50.6860   53.1210   29.4750 C.2    23  GLN23       0.2608
      8  OE1       51.8580   53.3690   29.7760 O.2    23  GLN23      -0.2717
      9  NE2       50.0900   51.9220   29.7410 N.am   23  GLN23      -0.0878
     10  N         53.2770   53.0220   22.0000 N.3    25  GLY25      -0.1210
     11  CA        53.9850   51.8750   21.4940 C.3    25  GLY25       0.1956
     12  C         54.3090   52.1610   20.0430 C.2    25  GLY25       0.2612
     13  O         53.5620   52.8820   19.3690 O.2    25  GLY25      -0.2717
     14  N         55.4030   51.5880   19.5470 N.am   26  LEU26      -0.1965
     15  CA        55.7910   51.7760   18.1500 C.3    26  LEU26       0.1728
     16  C         55.9100   50.4700   17.3840 C.2    26  LEU26       0.2616
     17  O         56.2660   49.4370   17.9510 O.2    26  LEU26      -0.2715
     18  CB        57.1400   52.4940   18.0940 C.3    26  LEU26       0.0311
     19  CG        57.2130   53.9790   18.4760 C.3    26  LEU26       0.0022
     20  CD1       58.6410   54.3320   18.7320 C.3    26  LEU26       0.0001
     21  CD2       56.6300   54.8760   17.3870 C.3    26  LEU26       0.0001
     22  N         55.6130   50.4890   16.0940 N.am   27  GLU27      -0.1977
     23  CA        55.9460   49.3310   15.2880 C.3    27  GLU27       0.1602
     24  C         56.7450   49.9010   14.1640 C.2    27  GLU27       0.2287
     25  O         56.3980   50.9740   13.6510 O.2    27  GLU27      -0.2864
     26  CB        54.7210   48.6080   14.7120 C.3    27  GLU27       0.0415
     27  CG        53.5240   48.4150   15.6280 C.3    27  GLU27       0.1163
     28  CD        52.2360   48.2270   14.8290 C.2    27  GLU27       0.3649
     29  OE1       52.1260   47.2590   14.0280 O.co2  27  GLU27      -0.2457
     30  OE2       51.3320   49.0740   14.9730 O.co2  27  GLU27      -0.2457
     31  N         59.4680   43.1780   11.3540 N.3    67  GLU67      -0.1245
     32  CA        58.7710   44.2180   12.0690 C.3    67  GLU67       0.1567
     33  C         59.0720   44.1910   13.5750 C.2    67  GLU67       0.2260
     34  O         58.9210   43.1500   14.2180 O.2    67  GLU67      -0.2867
     35  CB        57.2850   44.1190   11.8210 C.3    67  GLU67       0.0388
     36  CG        56.4980   44.7400   12.9250 C.3    67  GLU67       0.1160
     37  CD        55.0690   44.9740   12.5530 C.2    67  GLU67       0.3649
     38  OE1       54.6840   44.5920   11.4240 O.co2  67  GLU67      -0.2457
     39  OE2       54.3210   45.5500   13.3780 O.co2  67  GLU67      -0.2457
     40  N         58.3590   45.6510   17.4180 N.3    69  ILE69      -0.1231
     41  CA        57.2320   46.1520   18.1750 C.3    69  ILE69       0.1692
     42  C         57.6410   46.4030   19.6130 C.2    69  ILE69       0.2593
     43  O         58.2330   45.5240   20.2540 O.2    69  ILE69      -0.2718
     44  CB        56.0840   45.1100   18.1780 C.3    69  ILE69       0.0266
     45  CG1       55.8170   44.6310   16.7420 C.3    69  ILE69       0.0019
     46  CG2       54.8390   45.6930   18.8660 C.3    69  ILE69       0.0020
     47  CD1       54.9060   43.4190   16.6210 C.3    69  ILE69       0.0001
     48  N         57.3130   47.5760   20.1470 N.am   70  THR70      -0.1940
     49  CA        57.6260   47.8230   21.5380 C.3    70  THR70       0.2013
     50  C         56.4030   47.5990   22.4220 C.2    70  THR70       0.2484
     51  O         55.2970   47.9280   22.0400 O.2    70  THR70      -0.2729
     52  CB        58.2080   49.2410   21.7590 C.3    70  THR70       0.1807
     53  OG1       57.1590   50.1960   22.0190 O.3    70  THR70      -0.2208
     54  CG2       59.0260   49.6630   20.5530 C.3    70  THR70       0.0379
     55  N         56.6090   47.0520   23.6200 N.am   71  PRO71      -0.2715
     56  CA        55.5100   46.8910   24.5670 C.3    71  PRO71       0.1536
     57  C         55.0760   48.2510   25.0640 C.2    71  PRO71       0.2598
     58  O         55.9150   49.1320   25.2320 O.2    71  PRO71      -0.2715
     59  CB        56.1400   46.0870   25.7030 C.3    71  PRO71       0.0310
     60  CG        57.4100   45.5010   25.1160 C.3    71  PRO71       0.0237
     61  CD        57.8830   46.5510   24.1600 C.3    71  PRO71       0.0939
     62  N         53.7770   48.4250   25.2790 N.am   72  VAL72      -0.1978
     63  CA        53.2340   49.7240   25.6760 C.3    72  VAL72       0.1596
     64  C         54.0240   50.2400   26.8600 C.2    72  VAL72       0.2287
     65  O         54.5190   49.4510   27.6810 O.2    72  VAL72      -0.2864
     66  CB        51.7190   49.6580   25.9990 C.3    72  VAL72       0.0276
     67  CG1       51.4610   48.8490   27.2620 C.3    72  VAL72       0.0022
     68  CG2       51.1530   51.0490   26.1390 C.3    72  VAL72       0.0022
     69  N         54.2010   52.7330   12.6000 N.3   150  HIS150     -0.1241
     70  CA        52.9540   53.0350   13.2750 C.3   150  HIS150      0.1621
     71  C         53.2080   53.5560   14.6590 C.2   150  HIS150      0.2264
     72  O         54.0560   53.0520   15.3880 O.2   150  HIS150     -0.2867
     73  CB        52.1170   51.7900   13.3800 C.3   150  HIS150      0.0745
     74  CG        51.7890   51.1830   12.0610 C.ar  150  HIS150      0.0817
     75  ND1       51.2620   49.9160   11.9410 N.ar  150  HIS150     -0.2268
     76  CD2       51.9150   51.6690   10.8030 C.ar  150  HIS150      0.1154
     77  CE1       51.0680   49.6500   10.6630 C.ar  150  HIS150      0.1986
     78  NE2       51.4500   50.6970    9.9530 N.ar  150  HIS150     -0.2212
     79  N         51.4130   54.2200   18.2440 N.3   152  ASN152     -0.1225
     80  CA        50.2520   53.8450   19.0090 C.3   152  ASN152      0.1785
     81  C         50.2260   54.6520   20.2880 C.2   152  ASN152      0.2597
     82  O         51.2690   54.8560   20.9300 O.2   152  ASN152     -0.2718
     83  CB        50.3300   52.3670   19.3030 C.3   152  ASN152      0.1169
     84  CG        50.3640   51.5370   18.0330 C.2   152  ASN152      0.2627
     85  OD1       49.3400   51.3280   17.3990 O.2   152  ASN152     -0.2716
     86  ND2       51.5440   51.0870   17.6420 N.am  152  ASN152     -0.0877
     87  N         49.0410   55.1020   20.6720 N.am  153  PHE153     -0.1962
     88  CA        48.9510   56.1680   21.6350 C.3   153  PHE153      0.1771
     89  C         47.6380   56.1260   22.4120 C.2   153  PHE153      0.2620
     90  O         46.5610   55.9000   21.8330 O.2   153  PHE153     -0.2715
     91  CB        49.0490   57.4650   20.8410 C.3   153  PHE153      0.0574
     92  CG        48.5060   58.6730   21.5330 C.ar  153  PHE153     -0.0200
     93  CD1       47.1610   58.9910   21.4520 C.ar  153  PHE153     -0.0042
     94  CD2       49.3710   59.5550   22.2030 C.ar  153  PHE153     -0.0042
     95  CE1       46.6560   60.1490   22.0630 C.ar  153  PHE153     -0.0003
     96  CE2       48.8830   60.7310   22.8270 C.ar  153  PHE153     -0.0003
     97  CZ        47.5200   61.0240   22.7620 C.ar  153  PHE153     -0.0000
     98  N         47.7260   56.3600   23.7180 N.am  154  SER154     -0.1950
     99  CA        46.5210   56.5290   24.5240 C.3   154  SER154      0.1924
    100  C         46.7350   57.5770   25.5900 C.2   154  SER154      0.2314
    101  O         47.8280   57.6880   26.1820 O.2   154  SER154     -0.2863
    102  CB        46.0770   55.2140   25.1770 C.3   154  SER154      0.2116
    103  OG        47.1820   54.5000   25.7070 O.3   154  SER154     -0.2180
    104  N         41.8900   43.6440    9.2390 N.3   283  ASN283     -0.1240
    105  CA        43.1930   44.2510    9.0680 C.3   283  ASN283      0.1653
    106  C         43.3840   44.7920    7.6540 C.2   283  ASN283      0.2266
    107  O         44.2480   45.6270    7.4100 O.2   283  ASN283     -0.2867
    108  CB        44.2970   43.2420    9.3460 C.3   283  ASN283      0.1155
    109  CG        43.9740   42.3000   10.5050 C.2   283  ASN283      0.2627
    110  OD1       42.7990   41.9140   10.7580 O.2   283  ASN283     -0.2716
    111  ND2       45.0330   41.8820   11.1990 N.am  283  ASN283     -0.0877
    112  N         43.5310   54.5180   12.9130 N.3   290  ARG290     -0.1245
    113  CA        42.6580   53.3980   13.1820 C.3   290  ARG290      0.1563
    114  C         42.4030   53.2480   14.6810 C.2   290  ARG290      0.2260
    115  O         43.3430   53.3300   15.4610 O.2   290  ARG290     -0.2867
    116  CB        43.3480   52.1820   12.5980 C.3   290  ARG290      0.0307
    117  CG        42.6210   50.9130   12.7080 C.3   290  ARG290      0.0489
    118  CD        43.6170   49.8240   12.4610 C.3   290  ARG290      0.2205
    119  NE        43.6080   49.4190   11.0630 N.pl3 290  ARG290     -0.0865
    120  CZ        44.3290   48.4160   10.5560 C.cat 290  ARG290      0.5346
    121  NH1       45.1720   47.7110   11.3250 N.pl3 290  ARG290      0.1354
    122  NH2       44.1880   48.1180    9.2650 N.pl3 290  ARG290      0.1354
    123  N         41.4620   51.2510   18.1600 N.3   292  LYS292     -0.1245
    124  CA        41.9380   49.9400   18.5580 C.3   292  LYS292      0.1561
    125  C         41.6330   49.5970   19.9860 C.2   292  LYS292      0.2260
    126  O         41.5240   50.4720   20.8420 O.2   292  LYS292     -0.2867
    127  CB        43.4490   49.8610   18.3670 C.3   292  LYS292      0.0271
    128  CG        43.8660   49.7930   16.9110 C.3   292  LYS292      0.0035
    129  CD        44.8210   48.6500   16.7780 C.3   292  LYS292      0.0206
    130  CE        44.6180   47.9010   15.5000 C.3   292  LYS292      0.1093
    131  NZ        45.6740   46.8430   15.4220 N.3   292  LYS292     -0.1314
    132  N         43.1240   46.0800   22.3990 N.3   294  VAL294     -0.1245
    133  CA        43.8440   44.8060   22.3960 C.3   294  VAL294      0.1561
    134  C         42.8600   43.6410   22.4680 C.2   294  VAL294      0.2260
    135  O         42.0570   43.5530   23.3960 O.2   294  VAL294     -0.2867
    136  CB        44.8640   44.7340   23.5800 C.3   294  VAL294      0.0252
    137  CG1       45.4790   43.3450   23.7030 C.3   294  VAL294      0.0019
    138  CG2       45.9640   45.8070   23.4150 C.3   294  VAL294      0.0019
    139  N         40.3310   51.6200   23.0310 N.3   311  GLU311     -0.1231
    140  CA        41.3730   51.6570   24.0530 C.3   311  GLU311      0.1699
    141  C         42.5200   52.6020   23.6850 C.2   311  GLU311      0.2592
    142  O         42.9840   53.3490   24.5240 O.2   311  GLU311     -0.2718
    143  CB        41.9380   50.2670   24.3260 C.3   311  GLU311      0.0402
    144  CG        43.0470   50.2390   25.3890 C.3   311  GLU311      0.1161
    145  CD        43.7640   48.8740   25.4470 C.2   311  GLU311      0.3649
    146  OE1       43.4070   47.9580   24.6470 O.co2 311  GLU311     -0.2457
    147  OE2       44.6960   48.7080   26.2770 O.co2 311  GLU311     -0.2457
    148  N         42.9990   52.5390   22.4480 N.am  312  TYR312     -0.1976
    149  CA        44.0460   53.4330   21.9970 C.3   312  TYR312      0.1639
    150  C         43.8810   53.7080   20.5110 C.2   312  TYR312      0.2290
    151  O         42.9790   53.1750   19.8810 O.2   312  TYR312     -0.2864
    152  CB        45.4350   52.8650   22.3270 C.3   312  TYR312      0.0560
    153  CG        45.8310   51.6460   21.5620 C.ar  312  TYR312     -0.0198
    154  CD1       45.4580   50.3710   21.9850 C.ar  312  TYR312     -0.0009
    155  CD2       46.6050   51.7520   20.4310 C.ar  312  TYR312     -0.0009
    156  CE1       45.8450   49.2310   21.2810 C.ar  312  TYR312      0.0417
    157  CE2       47.0000   50.6280   19.7220 C.ar  312  TYR312      0.0417
    158  CZ        46.6020   49.3750   20.1430 C.ar  312  TYR312      0.1957
    159  OH        46.9980   48.2830   19.4110 O.3   312  TYR312     -0.2866
    160  N         45.8240   54.0030   16.6410 N.3   314  GLU314     -0.1245
    161  CA        47.0050   53.6850   15.8700 C.3   314  GLU314      0.1567
    162  C         47.1430   54.6800   14.7180 C.2   314  GLU314      0.2260
    163  O         46.2770   54.7540   13.8340 O.2   314  GLU314     -0.2867
    164  CB        46.9140   52.2770   15.3120 C.3   314  GLU314      0.0388
    165  CG        48.0620   51.8900   14.4310 C.3   314  GLU314      0.1160
    166  CD        47.8800   50.5110   13.7870 C.2   314  GLU314      0.3649
    167  OE1       46.7330   50.1230   13.4130 O.co2 314  GLU314     -0.2457
    168  OE2       48.9230   49.8200   13.6380 O.co2 314  GLU314     -0.2457
    169  N         49.0610   55.4380   11.4410 N.3   316  ARG316     -0.1245
    170  CA        49.7240   54.5880   10.4770 C.3   316  ARG316      0.1563
    171  C         50.4230   55.3720    9.3550 C.2   316  ARG316      0.2260
    172  O         51.0770   54.7870    8.4850 O.2   316  ARG316     -0.2867
    173  CB        48.7040   53.6290    9.8620 C.3   316  ARG316      0.0307
    174  CG        48.0050   52.7160   10.8640 C.3   316  ARG316      0.0489
    175  CD        46.7560   52.0300   10.2860 C.3   316  ARG316      0.2205
    176  NE        47.0930   51.2140    9.1170 N.pl3 316  ARG316     -0.0865
    177  CZ        47.4940   49.9390    9.1660 C.cat 316  ARG316      0.5346
    178  NH1       47.6060   49.3070   10.3400 N.pl3 316  ARG316      0.1354
    179  NH2       47.8080   49.3060    8.0310 N.pl3 316  ARG316      0.1354
@<TRIPOS>BOND
     1   107   106    2
     2   106   105    1
     3   179   177    1
     4   172   171    2
     5   105   104    1
     6   105   108    1
     7   176   177    2
     8   176   175    1
     9   177   178    1
    10   122   120    1
    11   108   109    1
    12   171   170    1
    13   173   170    1
    14   173   174    1
    15    78    77   ar
    16    78    76   ar
    17   175   174    1
    18   170   169    1
    19   109   110    2
    20   109   111   am
    21   120   119    2
    22   120   121    1
    23    77    75   ar
    24    76    74   ar
    25   119   118    1
    26    31    32    1
    27    38    37   ar
    28    35    32    1
    29    35    36    1
    30    75    74   ar
    31    74    73    1
    32    32    33    1
    33   118   117    1
    34    37    36    1
    35    37    39   ar
    36   116   117    1
    37   116   113    1
    38    69    70    1
    39   112   113    1
    40   113   114    1
    41    70    73    1
    42    70    71    1
    43   167   166   ar
    44    33    34    2
    45   168   166   ar
    46    25    24    2
    47   166   165    1
    48   163   162    2
    49    29    28   ar
    50    24    23    1
    51   165   164    1
    52    71    72    2
    53   114   115    2
    54    26    23    1
    55    26    27    1
    56   162   161    1
    57    28    30   ar
    58    28    27    1
    59    23    22    1
    60   164   161    1
    61   131   130    1
    62   130   129    1
    63   161   160    1
    64    22    16   am
    65    47    45    1
    66    45    44    1
    67   129   128    1
    68   128   127    1
    69    16    17    2
    70    16    15    1
    71    21    19    1
    72    85    84    2
    73    40    41    1
    74    86    84   am
    75    84    83    1
    76    18    15    1
    77    18    19    1
    78    15    14    1
    79   123   124    1
    80    41    44    1
    81    41    42    1
    82    44    46    1
    83    79    80    1
    84   127   124    1
    85    19    20    1
    86   124   125    1
    87    80    83    1
    88    80    81    1
    89    13    12    2
    90   159   158    1
    91    14    12   am
    92    42    48   am
    93    42    43    2
    94   157   158   ar
    95   157   155   ar
    96   151   150    2
    97   125   126    2
    98    12    11    1
    99   158   156   ar
   100    48    49    1
   101    81    87   am
   102    81    82    2
   103   155   153   ar
   104   150   149    1
   105    54    52    1
   106    87    88    1
   107    91    92    1
   108    91    88    1
   109   156   154   ar
   110    93    92   ar
   111    93    95   ar
   112    11    10    1
   113    92    94   ar
   114    49    52    1
   115    49    50    1
   116   153   154   ar
   117   153   152    1
   118    88    89    1
   119    52    53    1
   120    90    89    2
   121   149   152    1
   122   149   148    1
   123    51    50    2
   124    95    97   ar
   125    94    96   ar
   126   133   132    1
   127   133   134    1
   128   133   136    1
   129    89    98   am
   130    50    55   am
   131   148   141   am
   132   134   135    2
   133    97    96   ar
   134   139   140    1
   135   138   136    1
   136   136   137    1
   137    55    61    1
   138    55    56    1
   139   141   140    1
   140   141   142    2
   141    98    99    1
   142   140   143    1
   143    61    60    1
   144   143   144    1
   145    99   102    1
   146    99   100    1
   147    56    57    1
   148    56    59    1
   149     4     3    2
   150   146   145   ar
   151    57    58    2
   152    57    62   am
   153    60    59    1
   154   102   103    1
   155    62    63    1
   156   144   145    1
   157     3     2    1
   158   145   147   ar
   159   100   101    2
   160    63    66    1
   161    63    64    1
   162    66    68    1
   163    66    67    1
   164    64    65    2
   165     2     1    1
   166     2     5    1
   167     5     6    1
   168     6     7    1
   169     7     9   am
   170     7     8    2
