@<TRIPOS>MOLECULE
tmp/2d37A01.pdb
 143 135 0 0 0
SMALL
GASTEIGER

@<TRIPOS>ATOM
      1  N         -6.0160   70.7350    1.0390 N.3     5  ILE5       -0.1231
      2  CA        -5.9890   70.9330    2.5040 C.3     5  ILE5        0.1692
      3  C         -4.7970   70.1660    3.0790 C.2     5  ILE5        0.2591
      4  O         -4.0020   70.7080    3.8400 O.2     5  ILE5       -0.2718
      5  CB        -7.3020   70.4690    3.1900 C.3     5  ILE5        0.0266
      6  CG1       -8.4250   71.5010    2.9560 C.3     5  ILE5        0.0019
      7  CG2       -7.0570   70.2130    4.7250 C.3     5  ILE5        0.0020
      8  CD1       -9.7470   71.0720    3.4430 C.3     5  ILE5        0.0001
      9  N         -4.6690   68.8860    2.7430 N.am    6  LYS6       -0.1980
     10  CA        -3.5590   68.1080    3.3070 C.3     6  LYS6        0.1596
     11  C         -2.1940   68.6650    2.9220 C.2     6  LYS6        0.2287
     12  O         -1.2790   68.6670    3.7290 O.2     6  LYS6       -0.2864
     13  CB        -3.6450   66.6290    2.8900 C.3     6  LYS6        0.0298
     14  CG        -4.7360   65.8870    3.5550 C.3     6  LYS6        0.0038
     15  CD        -4.7600   64.4320    3.0360 C.3     6  LYS6        0.0206
     16  CE        -5.7630   63.6330    3.7750 C.3     6  LYS6        0.1093
     17  NZ        -5.9210   62.2760    3.1550 N.3     6  LYS6       -0.1314
     18  N         -1.6050   71.8220    4.9250 N.3     9  MET9       -0.1230
     19  CA        -1.4700   71.5110    6.3540 C.3     9  MET9        0.1702
     20  C         -0.2220   70.7290    6.6970 C.2     9  MET9        0.2592
     21  O          0.2970   70.8080    7.8140 O.2     9  MET9       -0.2718
     22  CB        -2.7180   70.8020    6.9090 C.3     9  MET9        0.0401
     23  CG        -4.0040   71.6050    6.8220 C.3     9  MET9        0.0596
     24  SD        -3.8810   73.1800    7.7440 S.3     9  MET9       -0.1393
     25  CE        -3.6810   72.5800    9.4170 C.3     9  MET9        0.0692
     26  N          0.3230   69.9670    5.7350 N.am   10  ARG10      -0.1980
     27  CA         1.5620   69.2550    5.9790 C.3    10  ARG10       0.1597
     28  C          2.6840   70.1620    6.3490 C.2    10  ARG10       0.2287
     29  O          3.6400   69.7270    7.0050 O.2    10  ARG10      -0.2864
     30  CB         1.9940   68.4050    4.7450 C.3    10  ARG10       0.0334
     31  CG         1.6680   66.9610    4.9280 C.3    10  ARG10       0.0492
     32  CD         2.2420   66.0300    3.8530 C.3    10  ARG10       0.2205
     33  NE         1.6570   66.3310    2.5530 N.pl3  10  ARG10      -0.0865
     34  CZ         0.5590   65.7530    2.0480 C.cat  10  ARG10       0.5346
     35  NH1       -0.1090   64.8020    2.7090 N.pl3  10  ARG10       0.1354
     36  NH2        0.1280   66.1320    0.8640 N.pl3  10  ARG10       0.1354
     37  N          1.8340   72.6930   14.1680 N.3    14  LEU14      -0.1245
     38  CA         0.7870   72.7420   15.1930 C.3    14  LEU14       0.1561
     39  C          1.2300   72.0050   16.4330 C.2    14  LEU14       0.2260
     40  O          1.7900   70.9160   16.3410 O.2    14  LEU14      -0.2867
     41  CB        -0.5030   72.1280   14.6720 C.3    14  LEU14       0.0270
     42  CG        -1.3110   72.9840   13.6850 C.3    14  LEU14       0.0019
     43  CD1       -2.3190   72.1100   12.9310 C.3    14  LEU14       0.0001
     44  CD2       -2.0050   74.1290   14.3650 C.3    14  LEU14       0.0001
     45  N         -3.9350   64.5910   19.1540 N.3    32  VAL32      -0.1231
     46  CA        -4.5900   65.6210   18.3790 C.3    32  VAL32       0.1692
     47  C         -3.6720   66.7970   18.0620 C.2    32  VAL32       0.2592
     48  O         -2.8150   67.1500   18.8680 O.2    32  VAL32      -0.2718
     49  CB        -5.8750   66.1530   19.0790 C.3    32  VAL32       0.0266
     50  CG1       -6.9280   65.0610   19.2420 C.3    32  VAL32       0.0020
     51  CG2       -5.5550   66.7910   20.4250 C.3    32  VAL32       0.0020
     52  N         -3.8380   67.3820   16.8670 N.am   33  ASN33      -0.1960
     53  CA        -3.2020   68.6520   16.5330 C.3    33  ASN33       0.1819
     54  C         -4.2140   69.7620   16.3490 C.2    33  ASN33       0.2621
     55  O         -3.8710   70.8330   15.8460 O.2    33  ASN33      -0.2715
     56  CB        -2.2350   68.5330   15.3300 C.3    33  ASN33       0.1195
     57  CG        -2.9160   68.3740   13.9950 C.2    33  ASN33       0.2630
     58  OD1       -4.1160   68.1930   13.8860 O.2    33  ASN33      -0.2716
     59  ND2       -2.0780   68.4730   12.8920 N.am   33  ASN33      -0.0877
     60  N         -5.4500   69.5190   16.7740 N.am   34  THR34      -0.1951
     61  CA        -6.5380   70.4840   16.7410 C.3    34  THR34       0.1897
     62  C         -6.9400   71.0620   18.0860 C.2    34  THR34       0.2313
     63  O         -7.9900   71.7370   18.1710 O.2    34  THR34      -0.2863
     64  CB        -7.8050   69.8830   16.1060 C.3    34  THR34       0.1794
     65  OG1       -8.2290   68.7420   16.8610 O.3    34  THR34      -0.2208
     66  CG2       -7.4950   69.4030   14.6800 C.3    34  THR34       0.0378
     67  N        -11.0260   68.9380   17.5580 N.3    48  PHE48      -0.1241
     68  CA       -11.8770   68.4380   16.4820 C.3    48  PHE48       0.1605
     69  C        -11.6880   66.9290   16.3870 C.2    48  PHE48       0.2264
     70  O        -10.5670   66.4270   16.3940 O.2    48  PHE48      -0.2867
     71  CB       -11.5030   69.0890   15.1480 C.3    48  PHE48       0.0534
     72  CG       -11.5210   70.5970   15.1430 C.ar   48  PHE48      -0.0203
     73  CD1      -12.2750   71.3290   16.0290 C.ar   48  PHE48      -0.0042
     74  CD2      -10.8060   71.2720   14.1550 C.ar   48  PHE48      -0.0042
     75  CE1      -12.2970   72.7410   15.9690 C.ar   48  PHE48      -0.0003
     76  CE2      -10.8310   72.6220   14.0530 C.ar   48  PHE48      -0.0003
     77  CZ       -11.5980   73.3760   14.9660 C.ar   48  PHE48      -0.0000
     78  N        -12.6070   63.3370   14.4860 N.3    50  ASP50      -0.1239
     79  CA       -12.9680   62.8000   13.1510 C.3    50  ASP50       0.1674
     80  C        -14.1410   61.8380   13.2660 C.2    50  ASP50       0.2266
     81  O        -13.9960   60.7660   13.8570 O.2    50  ASP50      -0.2867
     82  CB       -11.7220   62.0780   12.5820 C.3    50  ASP50       0.1410
     83  CG       -11.8310   61.7030   11.1260 C.2    50  ASP50       0.3668
     84  OD1      -12.9280   61.7850   10.5240 O.co2  50  ASP50      -0.2456
     85  OD2      -10.8180   61.3010   10.5130 O.co2  50  ASP50      -0.2456
     86  N        -13.8900   58.1180   11.7090 N.3    53  LYS53      -0.1245
     87  CA       -13.2390   57.0910   12.5210 C.3    53  LYS53       0.1561
     88  C        -13.9720   56.8230   13.8400 C.2    53  LYS53       0.2260
     89  O        -13.5130   56.0190   14.6740 O.2    53  LYS53      -0.2867
     90  CB       -11.8180   57.5190   12.8120 C.3    53  LYS53       0.0271
     91  CG       -10.9560   57.7210   11.5660 C.3    53  LYS53       0.0035
     92  CD        -9.5560   57.9830   11.9520 C.3    53  LYS53       0.0206
     93  CE        -8.6820   58.3580   10.7260 C.3    53  LYS53       0.1093
     94  NZ        -7.3690   58.9110   11.0480 N.3    53  LYS53      -0.1314
     95  N        -14.0690   58.9240   16.2470 N.3    55  ASN55      -0.1240
     96  CA       -13.2850   59.5670   17.3100 C.3    55  ASN55       0.1653
     97  C        -14.1250   60.5010   18.1700 C.2    55  ASN55       0.2266
     98  O        -13.7330   60.8390   19.2780 O.2    55  ASN55      -0.2867
     99  CB       -12.1080   60.3510   16.7300 C.3    55  ASN55       0.1155
    100  CG       -11.0030   59.4580   16.1560 C.2    55  ASN55       0.2627
    101  OD1      -10.9560   58.2330   16.4270 O.2    55  ASN55      -0.2716
    102  ND2      -10.0640   60.0610   15.4170 N.am   55  ASN55      -0.0877
    103  N        -17.2710   66.4850    8.3120 N.3   122  ASP122     -0.1225
    104  CA       -16.9320   65.1390    8.7510 C.3   122  ASP122      0.1805
    105  C        -16.2490   65.0510   10.1310 C.2   122  ASP122      0.2597
    106  O        -15.7420   63.9900   10.4880 O.2   122  ASP122     -0.2718
    107  CB       -16.1090   64.4040    7.6920 C.3   122  ASP122      0.1424
    108  CG       -14.7450   64.9700    7.4800 C.2   122  ASP122      0.3668
    109  OD1      -14.2460   65.7800    8.3360 O.co2 122  ASP122     -0.2456
    110  OD2      -14.0440   64.6780    6.4960 O.co2 122  ASP122     -0.2456
    111  N        -16.2680   66.1510   10.8870 N.am  123  HIS123     -0.1975
    112  CA       -15.7840   66.1970   12.2700 C.3   123  HIS123      0.1656
    113  C        -16.8210   66.7250   13.2460 C.2   123  HIS123      0.2291
    114  O        -17.8680   67.2680   12.8600 O.2   123  HIS123     -0.2864
    115  CB       -14.5470   67.0740   12.3790 C.3   123  HIS123      0.0771
    116  CG       -13.2710   66.4030   11.9770 C.ar  123  HIS123      0.0820
    117  ND1      -13.0220   66.0110   10.6870 N.ar  123  HIS123     -0.2267
    118  CD2      -12.1410   66.1380   12.6710 C.ar  123  HIS123      0.1154
    119  CE1      -11.8080   65.4950   10.6030 C.ar  123  HIS123      0.1986
    120  NE2      -11.2520   65.5340   11.8030 N.ar  123  HIS123     -0.2212
    121  N          4.1690   69.6060   15.7170 N.3   145  TYR145     -0.1241
    122  CA         4.0020   68.6320   14.6520 C.3   145  TYR145      0.1605
    123  C          3.9090   69.2960   13.3110 C.2   145  TYR145      0.2264
    124  O          3.1220   70.2020   13.1150 O.2   145  TYR145     -0.2867
    125  CB         2.7680   67.8230   14.8820 C.3   145  TYR145      0.0534
    126  CG         2.5160   66.7090   13.9240 C.ar  145  TYR145     -0.0201
    127  CD1        3.2220   65.5160   14.0220 C.ar  145  TYR145     -0.0009
    128  CD2        1.5530   66.8070   12.9320 C.ar  145  TYR145     -0.0009
    129  CE1        2.9700   64.4900   13.1460 C.ar  145  TYR145      0.0417
    130  CE2        1.3010   65.8050   12.0870 C.ar  145  TYR145      0.0417
    131  CZ         1.9900   64.6240   12.1990 C.ar  145  TYR145      0.1957
    132  OH         1.6890   63.5960   11.3560 O.3   145  TYR145     -0.2866
    133  N          4.6080   65.2410    9.3830 N.3   148  ARG148     -0.1245
    134  CA         4.7180   63.9200   10.0410 C.3   148  ARG148      0.1563
    135  C          5.8060   63.8000   11.0510 C.2   148  ARG148      0.2260
    136  O          6.0310   62.6930   11.5710 O.2   148  ARG148     -0.2867
    137  CB         4.7750   62.7970    9.0040 C.3   148  ARG148      0.0307
    138  CG         3.6910   62.9110    8.0320 C.3   148  ARG148      0.0489
    139  CD         3.6910   61.8640    6.9740 C.3   148  ARG148      0.2205
    140  NE         2.5310   61.9720    6.1180 N.pl3 148  ARG148     -0.0865
    141  CZ         2.4610   61.5510    4.8590 C.cat 148  ARG148      0.5346
    142  NH1        3.5120   60.9590    4.2720 N.pl3 148  ARG148      0.1354
    143  NH2        1.3440   61.7200    4.1780 N.pl3 148  ARG148      0.1354
@<TRIPOS>BOND
     1    36    34    1
     2     1     2    1
     3    34    33    2
     4    34    35    1
     5     2     3    1
     6     2     5    1
     7    33    32    1
     8     9     3   am
     9     9    10    1
    10    13    10    1
    11    13    14    1
    12    11    10    1
    13    11    12    2
    14     6     5    1
    15     6     8    1
    16    15    14    1
    17    15    16    1
    18     3     4    2
    19    17    16    1
    20     5     7    1
    21    32    31    1
    22   143   141    1
    23   142   141    1
    24    30    31    1
    25    30    27    1
    26   141   140    2
    27    18    19    1
    28    26    27    1
    29    26    20   am
    30    27    28    1
    31   140   139    1
    32    28    29    2
    33    19    20    1
    34    19    22    1
    35   110   108   ar
    36    20    21    2
    37    23    22    1
    38    23    24    1
    39   139   138    1
    40   108   107    1
    41   108   109   ar
    42   107   104    1
    43    24    25    1
    44   138   137    1
    45   103   104    1
    46   104   105    1
    47   137   134    1
    48   133   134    1
    49   134   135    1
    50   105   106    2
    51   105   111   am
    52    85    83   ar
    53    84    83   ar
    54   119   117   ar
    55   119   120   ar
    56   117   116   ar
    57    93    94    1
    58    93    92    1
    59   111   112    1
    60   135   136    2
    61    83    82    1
    62   132   131    1
    63    91    92    1
    64    91    90    1
    65    86    87    1
    66   120   118   ar
    67   116   115    1
    68   116   118   ar
    69   130   131   ar
    70   130   128   ar
    71   131   129   ar
    72   112   115    1
    73   112   113    1
    74    87    90    1
    75    87    88    1
    76    82    79    1
    77   114   113    2
    78    59    57   am
    79    43    42    1
    80   128   126   ar
    81   124   123    2
    82   129   127   ar
    83    79    80    1
    84    79    78    1
    85    80    81    2
    86   123   122    1
    87    42    44    1
    88    42    41    1
    89    88    89    2
    90    58    57    2
    91   126   127   ar
    92   126   125    1
    93    57    56    1
    94    76    74   ar
    95    76    77   ar
    96    74    72   ar
    97    37    38    1
    98   122   125    1
    99   122   121    1
   100    41    38    1
   101    66    64    1
   102    77    75   ar
   103    72    71    1
   104    72    73   ar
   105    71    68    1
   106    38    39    1
   107    56    53    1
   108   102   100   am
   109    55    54    2
   110    75    73   ar
   111    64    61    1
   112    64    65    1
   113   100   101    2
   114   100    99    1
   115    95    96    1
   116    40    39    2
   117    54    53    1
   118    54    60   am
   119    69    70    2
   120    69    68    1
   121    68    67    1
   122    53    52    1
   123    99    96    1
   124    61    60    1
   125    61    62    1
   126    52    47   am
   127    96    97    1
   128    47    46    1
   129    47    48    2
   130    62    63    2
   131    97    98    2
   132    46    49    1
   133    46    45    1
   134    49    50    1
   135    49    51    1
