@<TRIPOS>MOLECULE
tmp/2d38A01.pdb
 157 148 0 0 0
SMALL
GASTEIGER

@<TRIPOS>ATOM
      1  N         37.3560    4.0160   31.7760 N.3     5  ILE5       -0.1231
      2  CA        37.4130    3.8080   30.3280 C.3     5  ILE5        0.1692
      3  C         38.6090    4.5560   29.7360 C.2     5  ILE5        0.2591
      4  O         39.4100    3.9650   29.0250 O.2     5  ILE5       -0.2718
      5  CB        36.0770    4.2290   29.6550 C.3     5  ILE5        0.0266
      6  CG1       35.0020    3.1670   29.9310 C.3     5  ILE5        0.0019
      7  CG2       36.2510    4.4350   28.1350 C.3     5  ILE5        0.0020
      8  CD1       33.5890    3.5820   29.5540 C.3     5  ILE5        0.0001
      9  N         38.7380    5.8420   30.0600 N.am    6  LYS6       -0.1980
     10  CA        39.8400    6.6690   29.5470 C.3     6  LYS6        0.1596
     11  C         41.2310    6.1270   29.9040 C.2     6  LYS6        0.2287
     12  O         42.1330    6.1330   29.0690 O.2     6  LYS6       -0.2864
     13  CB        39.7040    8.1180   30.0440 C.3     6  LYS6        0.0298
     14  CG        38.5800    8.9060   29.3750 C.3     6  LYS6        0.0038
     15  CD        38.6070   10.3790   29.7870 C.3     6  LYS6        0.0206
     16  CE        37.7040   11.2340   28.9080 C.3     6  LYS6        0.1093
     17  NZ        37.5090   12.6270   29.4500 N.3     6  LYS6       -0.1314
     18  N         41.8250    2.9360   27.8430 N.3     9  MET9       -0.1230
     19  CA        41.8820    3.2390   26.4100 C.3     9  MET9        0.1702
     20  C         43.1430    4.0150   26.0310 C.2     9  MET9        0.2592
     21  O         43.6030    3.9350   24.9040 O.2     9  MET9       -0.2718
     22  CB        40.6320    4.0020   25.9720 C.3     9  MET9        0.0401
     23  CG        39.3410    3.1910   26.0640 C.3     9  MET9        0.0596
     24  SD        39.3890    1.6360   25.1460 S.3     9  MET9       -0.1393
     25  CE        39.4770    2.2570   23.4720 C.3     9  MET9        0.0692
     26  N         43.7050    4.7360   27.0010 N.am   10  ARG10      -0.1980
     27  CA        44.9490    5.4950   26.8460 C.3    10  ARG10       0.1597
     28  C         46.1330    4.6010   26.5080 C.2    10  ARG10       0.2287
     29  O         47.0910    5.0390   25.8690 O.2    10  ARG10      -0.2864
     30  CB        45.2360    6.2170   28.1700 C.3    10  ARG10       0.0334
     31  CG        46.3920    7.1720   28.1940 C.3    10  ARG10       0.0492
     32  CD        46.3410    8.1020   29.4120 C.3    10  ARG10       0.2205
     33  NE        45.1870    9.0060   29.3420 N.pl3  10  ARG10      -0.0865
     34  CZ        44.2570    9.1770   30.2910 C.cat  10  ARG10       0.5346
     35  NH1       44.2950    8.5100   31.4420 N.pl3  10  ARG10       0.1354
     36  NH2       43.2630   10.0370   30.0820 N.pl3  10  ARG10       0.1354
     37  N         45.0780    2.1990   18.8250 N.3    14  LEU14      -0.1245
     38  CA        44.0310    2.1740   17.8020 C.3    14  LEU14       0.1561
     39  C         44.4770    2.8400   16.5050 C.2    14  LEU14       0.2260
     40  O         45.1280    3.8870   16.5220 O.2    14  LEU14      -0.2867
     41  CB        42.7800    2.8800   18.3170 C.3    14  LEU14       0.0270
     42  CG        41.9370    2.0220   19.2510 C.3    14  LEU14       0.0019
     43  CD1       40.9170    2.8830   19.9810 C.3    14  LEU14       0.0001
     44  CD2       41.2610    0.8890   18.4970 C.3    14  LEU14       0.0001
     45  N         39.4150    7.5400   15.9480 N.3    33  ASN33      -0.1225
     46  CA        40.0790    6.2960   16.3160 C.3    33  ASN33       0.1785
     47  C         39.0900    5.1390   16.4790 C.2    33  ASN33       0.2597
     48  O         39.4470    4.0720   17.0030 O.2    33  ASN33      -0.2718
     49  CB        40.9520    6.4720   17.5700 C.3    33  ASN33       0.1169
     50  CG        40.1700    6.8600   18.8150 C.2    33  ASN33       0.2627
     51  OD1       38.9450    7.0260   18.8050 O.2    33  ASN33      -0.2716
     52  ND2       40.9030    7.0190   19.9150 N.am   33  ASN33      -0.0877
     53  N         37.8630    5.3590   16.0130 N.am   34  THR34      -0.1953
     54  CA        36.7930    4.3600   16.0930 C.3    34  THR34       0.1897
     55  C         36.4090    3.7710   14.7330 C.2    34  THR34       0.2313
     56  O         35.3830    3.0970   14.6170 O.2    34  THR34      -0.2863
     57  CB        35.5310    4.9740   16.7310 C.3    34  THR34       0.1794
     58  OG1       35.1430    6.1480   16.0100 O.3    34  THR34      -0.2208
     59  CG2       35.8040    5.4400   18.1590 C.3    34  THR34       0.0378
     60  N         32.3660    6.0150   15.1940 N.3    48  PHE48      -0.1241
     61  CA        31.5230    6.5430   16.2470 C.3    48  PHE48       0.1605
     62  C         31.6730    8.0590   16.2690 C.2    48  PHE48       0.2264
     63  O         32.7840    8.5760   16.2240 O.2    48  PHE48      -0.2867
     64  CB        31.9090    5.9430   17.6030 C.3    48  PHE48       0.0534
     65  CG        31.8630    4.4250   17.6570 C.ar   48  PHE48      -0.0203
     66  CD1       31.1170    3.6760   16.7470 C.ar   48  PHE48      -0.0042
     67  CD2       32.5620    3.7480   18.6530 C.ar   48  PHE48      -0.0042
     68  CE1       31.0760    2.2800   16.8240 C.ar   48  PHE48      -0.0003
     69  CE2       32.5240    2.3510   18.7370 C.ar   48  PHE48      -0.0003
     70  CZ        31.7790    1.6210   17.8200 C.ar   48  PHE48      -0.0000
     71  N         30.6410   11.6830   18.1940 N.3    50  ASP50      -0.1239
     72  CA        30.2680   12.2700   19.4760 C.3    50  ASP50       0.1674
     73  C         28.9970   13.1360   19.3460 C.2    50  ASP50       0.2266
     74  O         29.0040   14.1520   18.6550 O.2    50  ASP50      -0.2867
     75  CB        31.4530   13.1110   19.9840 C.3    50  ASP50       0.1410
     76  CG        31.3510   13.4650   21.4600 C.2    50  ASP50       0.3668
     77  OD1       30.2550   13.8160   21.9040 O.co2  50  ASP50      -0.2456
     78  OD2       32.3180   13.4390   22.2530 O.co2  50  ASP50      -0.2456
     79  N         29.2130   16.8640   21.0460 N.3    53  LYS53      -0.1245
     80  CA        29.9500   17.8550   20.2630 C.3    53  LYS53       0.1561
     81  C         29.2610   18.1480   18.9240 C.2    53  LYS53       0.2260
     82  O         29.6890   19.0270   18.1840 O.2    53  LYS53      -0.2867
     83  CB        31.3830   17.3720   20.0150 C.3    53  LYS53       0.0271
     84  CG        32.2620   17.3170   21.2700 C.3    53  LYS53       0.0035
     85  CD        33.7050   16.9320   20.9340 C.3    53  LYS53       0.0206
     86  CE        34.4520   16.3990   22.1650 C.3    53  LYS53       0.1093
     87  NZ        35.7680   15.7680   21.8340 N.3    53  LYS53      -0.1314
     88  N         29.2310   16.1090   16.3760 N.3    55  ASN55      -0.1240
     89  CA        29.9840   15.4610   15.2900 C.3    55  ASN55       0.1653
     90  C         29.1660   14.4750   14.4560 C.2    55  ASN55       0.2266
     91  O         29.5660   14.1190   13.3480 O.2    55  ASN55      -0.2867
     92  CB        31.2020   14.7210   15.8500 C.3    55  ASN55       0.1155
     93  CG        32.2660   15.6570   16.4090 C.2    55  ASN55       0.2627
     94  OD1       32.2770   16.8510   16.1300 O.2    55  ASN55      -0.2716
     95  ND2       33.1740   15.1020   17.2020 N.am   55  ASN55      -0.0877
     96  N         41.9050   17.1850   14.2600 N.3    80  ALA80      -0.1231
     97  CA        41.5460   17.0540   15.6690 C.3    80  ALA80       0.1694
     98  C         41.5320   18.4070   16.3920 C.2    80  ALA80       0.2591
     99  O         40.6540   18.6540   17.2040 O.2    80  ALA80      -0.2718
    100  CB        42.4960   16.0920   16.3720 C.3    80  ALA80       0.0304
    101  N         42.4680   19.2920   16.0610 N.am   81  LEU81      -0.1980
    102  CA        42.7560   20.4590   16.9000 C.3    81  LEU81       0.1596
    103  C         42.3140   21.7990   16.3420 C.2    81  LEU81       0.2287
    104  O         41.9230   22.6830   17.1090 O.2    81  LEU81      -0.2864
    105  CB        44.2530   20.5470   17.1820 C.3    81  LEU81       0.0297
    106  CG        44.8840   19.3290   17.8390 C.3    81  LEU81       0.0022
    107  CD1       46.3760   19.5420   17.9610 C.3    81  LEU81       0.0001
    108  CD2       44.2560   19.0640   19.2060 C.3    81  LEU81       0.0001
    109  N         26.1840    8.4820   24.4310 N.3   122  ASP122     -0.1225
    110  CA        26.5580    9.8250   23.9830 C.3   122  ASP122      0.1805
    111  C         27.2370    9.8820   22.5980 C.2   122  ASP122      0.2597
    112  O         27.7710   10.9170   22.2270 O.2   122  ASP122     -0.2718
    113  CB        27.4050   10.5350   25.0590 C.3   122  ASP122      0.1424
    114  CG        28.7690    9.9030   25.2670 C.2   122  ASP122      0.3668
    115  OD1       29.2450    9.1490   24.3910 O.co2 122  ASP122     -0.2456
    116  OD2       29.4460   10.1170   26.2950 O.co2 122  ASP122     -0.2456
    117  N         27.2040    8.7810   21.8420 N.am  123  HIS123     -0.1975
    118  CA        27.7110    8.7570   20.4700 C.3   123  HIS123      0.1656
    119  C         26.6570    8.1760   19.5200 C.2   123  HIS123      0.2291
    120  O         25.6910    7.5560   19.9610 O.2   123  HIS123     -0.2864
    121  CB        28.9670    7.8910   20.3770 C.3   123  HIS123      0.0771
    122  CG        30.2440    8.5990   20.7080 C.ar  123  HIS123      0.0820
    123  ND1       30.6040    8.9330   21.9950 N.ar  123  HIS123     -0.2267
    124  CD2       31.2750    8.9850   19.9190 C.ar  123  HIS123      0.1154
    125  CE1       31.7890    9.5200   21.9820 C.ar  123  HIS123      0.1986
    126  NE2       32.2170    9.5640   20.7340 N.ar  123  HIS123     -0.2212
    127  N         47.3840    5.3330   17.2130 N.3   145  TYR145     -0.1241
    128  CA        47.2270    6.3110   18.2660 C.3   145  TYR145      0.1605
    129  C         47.1390    5.6280   19.6190 C.2   145  TYR145      0.2264
    130  O         46.3210    4.7260   19.8180 O.2   145  TYR145     -0.2867
    131  CB        45.9600    7.1010   18.0140 C.3   145  TYR145      0.0534
    132  CG        45.7020    8.2150   18.9900 C.ar  145  TYR145     -0.0201
    133  CD1       46.3850    9.4310   18.8860 C.ar  145  TYR145     -0.0009
    134  CD2       44.7600    8.0740   19.9980 C.ar  145  TYR145     -0.0009
    135  CE1       46.1390   10.4680   19.7730 C.ar  145  TYR145      0.0417
    136  CE2       44.5080    9.1060   20.8830 C.ar  145  TYR145      0.0417
    137  CZ        45.1970   10.3030   20.7610 C.ar  145  TYR145      0.1957
    138  OH        44.9470   11.3420   21.6340 O.3   145  TYR145     -0.2866
    139  N         47.9540    6.9860   23.9530 N.3   147  ASN147     -0.1225
    140  CA        48.5390    7.8880   24.9490 C.3   147  ASN147      0.1785
    141  C         48.8550    9.2490   24.3050 C.2   147  ASN147      0.2597
    142  O         49.9430    9.7940   24.4720 O.2   147  ASN147     -0.2718
    143  CB        49.7940    7.2480   25.5660 C.3   147  ASN147      0.1169
    144  CG        50.2480    7.9350   26.8530 C.2   147  ASN147      0.2627
    145  OD1       49.4380    8.4500   27.6180 O.2   147  ASN147     -0.2716
    146  ND2       51.5580    7.9400   27.0880 N.am  147  ASN147     -0.0877
    147  N         47.9050    9.7360   23.5040 N.am  148  ARG148     -0.1979
    148  CA        47.9530   11.0580   22.8600 C.3   148  ARG148      0.1597
    149  C         48.9890   11.1870   21.7550 C.2   148  ARG148      0.2287
    150  O         49.1750   12.2660   21.1890 O.2   148  ARG148     -0.2864
    151  CB        48.1220   12.1660   23.9050 C.3   148  ARG148      0.0334
    152  CG        46.9230   12.2580   24.7970 C.3   148  ARG148      0.0492
    153  CD        47.0950   13.1750   25.9750 C.3   148  ARG148      0.2205
    154  NE        45.9610   13.0820   26.8860 N.pl3 148  ARG148     -0.0865
    155  CZ        45.9420   13.5650   28.1300 C.cat 148  ARG148      0.5346
    156  NH1       47.0060   14.1840   28.6400 N.pl3 148  ARG148      0.1354
    157  NH2       44.8500   13.4280   28.8730 N.pl3 148  ARG148      0.1354
@<TRIPOS>BOND
     1    91    90    2
     2    96    97    1
     3    90    89    1
     4    56    55    2
     5    55    54    1
     6    60    61    1
     7    89    92    1
     8    89    88    1
     9    97   100    1
    10    97    98    1
    11    92    93    1
    12    45    46    1
    13    58    57    1
    14    53    54    1
    15    53    47   am
    16   101    98   am
    17   101   102    1
    18    54    57    1
    19    94    93    2
    20    63    62    2
    21    61    62    1
    22    61    64    1
    23    46    47    1
    24    46    49    1
    25   103   102    1
    26   103   104    2
    27    98    99    2
    28    93    95   am
    29    47    48    2
    30    39    40    2
    31    39    38    1
    32    57    59    1
    33    66    68   ar
    34    66    65   ar
    35    68    70   ar
    36   102   105    1
    37   105   106    1
    38   127   128    1
    39    49    50    1
    40    64    65    1
    41    65    67   ar
    42    38    41    1
    43    38    37    1
    44    70    69   ar
    45   106   107    1
    46   106   108    1
    47   131   128    1
    48   131   132    1
    49    82    81    2
    50    71    72    1
    51   128   129    1
    52    41    42    1
    53    44    42    1
    54    67    69   ar
    55    74    73    2
    56    51    50    2
    57    50    52   am
    58   133   132   ar
    59   133   135   ar
    60    81    80    1
    61   132   134   ar
    62    42    43    1
    63    73    72    1
    64    72    75    1
    65   119   120    2
    66   119   118    1
    67   129   130    2
    68   135   137   ar
    69   124   122   ar
    70   124   126   ar
    71    75    76    1
    72   134   136   ar
    73    83    80    1
    74    83    84    1
    75    80    79    1
    76   121   118    1
    77   121   122    1
    78   118   117    1
    79   122   123   ar
    80   126   125   ar
    81   137   136   ar
    82   137   138    1
    83    85    84    1
    84    85    86    1
    85   150   149    2
    86    76    77   ar
    87    76    78   ar
    88   149   148    1
    89    87    86    1
    90   117   111   am
    91   125   123   ar
    92   112   111    2
    93   111   110    1
    94   148   147    1
    95   148   151    1
    96    25    24    1
    97   147   141   am
    98   151   152    1
    99   139   140    1
   100   110   109    1
   101   110   113    1
   102   141   142    2
   103   141   140    1
   104   115   114   ar
   105   152   153    1
   106    21    20    2
   107   140   143    1
   108   113   114    1
   109    24    23    1
   110   114   116   ar
   111   143   144    1
   112    29    28    2
   113    22    23    1
   114    22    19    1
   115   153   154    1
   116    20    19    1
   117    20    26   am
   118    19    18    1
   119    28    27    1
   120    27    26    1
   121    27    30    1
   122   144   146   am
   123   144   145    2
   124   154   155    2
   125   155   156    1
   126   155   157    1
   127     7     5    1
   128    30    31    1
   129    31    32    1
   130    16    17    1
   131    16    15    1
   132     4     3    2
   133    12    11    2
   134    33    32    1
   135    33    34    2
   136    14    15    1
   137    14    13    1
   138    10    11    1
   139    10    13    1
   140    10     9    1
   141     8     6    1
   142     5     6    1
   143     5     2    1
   144     3     9   am
   145     3     2    1
   146    36    34    1
   147    34    35    1
   148     2     1    1
