@<TRIPOS>MOLECULE
tmp/2d38A00.pdb
 181 177 0 0 0
SMALL
GASTEIGER

@<TRIPOS>ATOM
      1  N         44.0020    5.0470   13.2110 N.3    16  VAL16      -0.1245
      2  CA        43.3690    6.3420   13.0300 C.3    16  VAL16       0.1561
      3  C         43.1210    6.6240   11.5550 C.2    16  VAL16       0.2260
      4  O         43.8730    6.1930   10.6970 O.2    16  VAL16      -0.2867
      5  CB        44.2180    7.4780   13.6350 C.3    16  VAL16       0.0252
      6  CG1       44.0030    7.5490   15.1250 C.3    16  VAL16       0.0019
      7  CG2       45.6900    7.2860   13.3120 C.3    16  VAL16       0.0019
      8  N         35.4490   17.4380    8.3220 N.3    29  GLY29      -0.1210
      9  CA        36.0110   16.1400    8.6230 C.3    29  GLY29       0.1956
     10  C         36.5250   16.0730   10.0390 C.2    29  GLY29       0.2612
     11  O         36.4840   17.0620   10.7750 O.2    29  GLY29      -0.2717
     12  N         37.0130   14.9030   10.4250 N.am   30  MET30      -0.1965
     13  CA        37.5870   14.7420   11.7460 C.3    30  MET30       0.1736
     14  C         38.4470   13.4990   11.8620 C.2    30  MET30       0.2617
     15  O         38.1890   12.4710   11.2350 O.2    30  MET30      -0.2715
     16  CB        36.4910   14.7210   12.8250 C.3    30  MET30       0.0427
     17  CG        35.5830   13.5030   12.7820 C.3    30  MET30       0.0599
     18  SD        34.3830   13.5400   14.1230 S.3    30  MET30      -0.1393
     19  CE        33.4180   12.0630   13.7840 C.3    30  MET30       0.0692
     20  N         39.4630   13.6150   12.6960 N.am   31  THR31      -0.1937
     21  CA        40.2840   12.4870   13.0990 C.3    31  THR31       0.2028
     22  C         39.4250   11.6040   13.9840 C.2    31  THR31       0.2642
     23  O         38.7390   12.0940   14.8790 O.2    31  THR31      -0.2714
     24  CB        41.5270   13.0030   13.8510 C.3    31  THR31       0.1808
     25  OG1       42.3110   13.8210   12.9650 O.3    31  THR31      -0.2208
     26  CG2       42.4520   11.8660   14.2640 C.3    31  THR31       0.0379
     27  N         39.4210   10.3080   13.6840 N.am   32  VAL32      -0.1963
     28  CA        38.7010    9.3170   14.4690 C.3    32  VAL32       0.1727
     29  C         39.6090    8.1220   14.7730 C.2    32  VAL32       0.2616
     30  O         40.4630    7.7460   13.9650 O.2    32  VAL32      -0.2715
     31  CB        37.3990    8.8150   13.7570 C.3    32  VAL32       0.0290
     32  CG1       36.4460    9.9480   13.5270 C.3    32  VAL32       0.0023
     33  CG2       37.7120    8.1140   12.4350 C.3    32  VAL32       0.0023
     34  N         39.4150    7.5400   15.9480 N.am   33  ASN33      -0.1958
     35  CA        40.0790    6.2960   16.3160 C.3    33  ASN33       0.1819
     36  C         39.0900    5.1390   16.4790 C.2    33  ASN33       0.2621
     37  O         39.4470    4.0720   17.0030 O.2    33  ASN33      -0.2715
     38  CB        40.9520    6.4720   17.5700 C.3    33  ASN33       0.1195
     39  CG        40.1700    6.8600   18.8150 C.2    33  ASN33       0.2630
     40  OD1       38.9450    7.0260   18.8050 O.2    33  ASN33      -0.2716
     41  ND2       40.9030    7.0190   19.9150 N.am   33  ASN33      -0.0877
     42  N         37.8630    5.3590   16.0130 N.am   34  THR34      -0.1951
     43  CA        36.7930    4.3600   16.0930 C.3    34  THR34       0.1897
     44  C         36.4090    3.7710   14.7330 C.2    34  THR34       0.2313
     45  O         35.3830    3.0970   14.6170 O.2    34  THR34      -0.2863
     46  CB        35.5310    4.9740   16.7310 C.3    34  THR34       0.1794
     47  OG1       35.1430    6.1480   16.0100 O.3    34  THR34      -0.2208
     48  CG2       35.8040    5.4400   18.1590 C.3    34  THR34       0.0378
     49  N         32.3660    6.0150   15.1940 N.3    48  PHE48      -0.1227
     50  CA        31.5230    6.5430   16.2470 C.3    48  PHE48       0.1736
     51  C         31.6730    8.0590   16.2690 C.2    48  PHE48       0.2595
     52  O         32.7840    8.5760   16.2240 O.2    48  PHE48      -0.2718
     53  CB        31.9090    5.9430   17.6030 C.3    48  PHE48       0.0547
     54  CG        31.8630    4.4250   17.6570 C.ar   48  PHE48      -0.0202
     55  CD1       31.1170    3.6760   16.7470 C.ar   48  PHE48      -0.0042
     56  CD2       32.5620    3.7480   18.6530 C.ar   48  PHE48      -0.0042
     57  CE1       31.0760    2.2800   16.8240 C.ar   48  PHE48      -0.0003
     58  CE2       32.5240    2.3510   18.7370 C.ar   48  PHE48      -0.0003
     59  CZ        31.7790    1.6210   17.8200 C.ar   48  PHE48      -0.0000
     60  N         30.5480    8.7620   16.3170 N.am   49  ALA49      -0.1966
     61  CA        30.5390   10.2220   16.2710 C.3    49  ALA49       0.1728
     62  C         29.9320   10.7580   17.5610 C.2    49  ALA49       0.2616
     63  O         28.8580   10.3440   17.9620 O.2    49  ALA49      -0.2715
     64  CB        29.7530   10.7150   15.0530 C.3    49  ALA49       0.0334
     65  N         30.6410   11.6830   18.1940 N.am   50  ASP50      -0.1971
     66  CA        30.2680   12.2700   19.4760 C.3    50  ASP50       0.1709
     67  C         28.9970   13.1360   19.3460 C.2    50  ASP50       0.2293
     68  O         29.0040   14.1520   18.6550 O.2    50  ASP50      -0.2864
     69  CB        31.4530   13.1110   19.9840 C.3    50  ASP50       0.1436
     70  CG        31.3510   13.4650   21.4600 C.2    50  ASP50       0.3671
     71  OD1       30.2550   13.8160   21.9040 O.co2  50  ASP50      -0.2456
     72  OD2       32.3180   13.4390   22.2530 O.co2  50  ASP50      -0.2456
     73  N         29.2130   16.8640   21.0460 N.3    53  LYS53      -0.1245
     74  CA        29.9500   17.8550   20.2630 C.3    53  LYS53       0.1561
     75  C         29.2610   18.1480   18.9240 C.2    53  LYS53       0.2260
     76  O         29.6890   19.0270   18.1840 O.2    53  LYS53      -0.2867
     77  CB        31.3830   17.3720   20.0150 C.3    53  LYS53       0.0271
     78  CG        32.2620   17.3170   21.2700 C.3    53  LYS53       0.0035
     79  CD        33.7050   16.9320   20.9340 C.3    53  LYS53       0.0206
     80  CE        34.4520   16.3990   22.1650 C.3    53  LYS53       0.1093
     81  NZ        35.7680   15.7680   21.8340 N.3    53  LYS53      -0.1314
     82  N         29.2310   16.1090   16.3760 N.3    55  ASN55      -0.1240
     83  CA        29.9840   15.4610   15.2900 C.3    55  ASN55       0.1653
     84  C         29.1660   14.4750   14.4560 C.2    55  ASN55       0.2266
     85  O         29.5660   14.1190   13.3480 O.2    55  ASN55      -0.2867
     86  CB        31.2020   14.7210   15.8500 C.3    55  ASN55       0.1155
     87  CG        32.2660   15.6570   16.4090 C.2    55  ASN55       0.2627
     88  OD1       32.2770   16.8510   16.1300 O.2    55  ASN55      -0.2716
     89  ND2       33.1740   15.1020   17.2020 N.am   55  ASN55      -0.0877
     90  N         42.8650   17.8560   11.8250 N.3    79  PHE79      -0.1227
     91  CA        41.4890   17.3810   11.8650 C.3    79  PHE79       0.1736
     92  C         41.0530   16.9280   13.2710 C.2    79  PHE79       0.2595
     93  O         39.9650   16.3770   13.4470 O.2    79  PHE79      -0.2718
     94  CB        41.2760   16.3070   10.7930 C.3    79  PHE79       0.0547
     95  CG        41.0830   16.8850    9.4250 C.ar   79  PHE79      -0.0202
     96  CD1       39.8220   17.2860    9.0040 C.ar   79  PHE79      -0.0042
     97  CD2       42.1690   17.0990    8.5840 C.ar   79  PHE79      -0.0042
     98  CE1       39.6330   17.8560    7.7500 C.ar   79  PHE79      -0.0003
     99  CE2       41.9930   17.6680    7.3300 C.ar   79  PHE79      -0.0003
    100  CZ        40.7280   18.0420    6.9090 C.ar   79  PHE79      -0.0000
    101  N         41.9050   17.1850   14.2600 N.am   80  ALA80      -0.1966
    102  CA        41.5460   17.0540   15.6690 C.3    80  ALA80       0.1728
    103  C         41.5320   18.4070   16.3920 C.2    80  ALA80       0.2616
    104  O         40.6540   18.6540   17.2040 O.2    80  ALA80      -0.2715
    105  CB        42.4960   16.0920   16.3720 C.3    80  ALA80       0.0334
    106  N         42.4680   19.2920   16.0610 N.am   81  LEU81      -0.1963
    107  CA        42.7560   20.4590   16.9000 C.3    81  LEU81       0.1728
    108  C         42.3140   21.7990   16.3420 C.2    81  LEU81       0.2616
    109  O         41.9230   22.6830   17.1090 O.2    81  LEU81      -0.2715
    110  CB        44.2530   20.5470   17.1820 C.3    81  LEU81       0.0311
    111  CG        44.8840   19.3290   17.8390 C.3    81  LEU81       0.0022
    112  CD1       46.3760   19.5420   17.9610 C.3    81  LEU81       0.0001
    113  CD2       44.2560   19.0640   19.2060 C.3    81  LEU81       0.0001
    114  N         42.4090   21.9620   15.0280 N.am   82  LYS82      -0.1964
    115  CA        42.1960   23.2590   14.3940 C.3    82  LYS82       0.1713
    116  C         40.7170   23.5970   14.2310 C.2    82  LYS82       0.2458
    117  O         39.8890   22.7010   14.1690 O.2    82  LYS82      -0.2730
    118  CB        42.8940   23.3010   13.0420 C.3    82  LYS82       0.0311
    119  CG        44.3940   23.1310   13.1590 C.3    82  LYS82       0.0038
    120  CD        45.1380   24.1990   12.4020 C.3    82  LYS82       0.0206
    121  CE        46.6300   24.0530   12.5680 C.3    82  LYS82       0.1093
    122  NZ        47.3550   24.7920   11.5020 N.3    82  LYS82      -0.1314
    123  N         40.3860   24.8910   14.1910 N.am   83  PRO83      -0.2716
    124  CA        38.9970   25.3200   13.9710 C.3    83  PRO83       0.1536
    125  C         38.4420   24.7750   12.6520 C.2    83  PRO83       0.2598
    126  O         39.1730   24.7120   11.6750 O.2    83  PRO83      -0.2715
    127  CB        39.0970   26.8550   13.9320 C.3    83  PRO83       0.0310
    128  CG        40.3680   27.1850   14.6530 C.3    83  PRO83       0.0237
    129  CD        41.2940   26.0400   14.3750 C.3    83  PRO83       0.0939
    130  N         37.1750   24.3750   12.6530 N.am   84  VAL84      -0.1978
    131  CA        36.5200   23.7830   11.4830 C.3    84  VAL84       0.1596
    132  C         36.7180   24.6210   10.2150 C.2    84  VAL84       0.2287
    133  O         37.0330   24.0840    9.1560 O.2    84  VAL84      -0.2864
    134  CB        35.0010   23.5670   11.7580 C.3    84  VAL84       0.0276
    135  CG1       34.2250   23.2230   10.4730 C.3    84  VAL84       0.0022
    136  CG2       34.8100   22.4670   12.7900 C.3    84  VAL84       0.0022
    137  N         40.3690   24.1310    8.4380 N.3    87  ARG87      -0.1245
    138  CA        40.9540   22.8240    8.1310 C.3    87  ARG87       0.1563
    139  C         41.2640   22.6110    6.6550 C.2    87  ARG87       0.2260
    140  O         42.3370   22.1260    6.3120 O.2    87  ARG87      -0.2867
    141  CB        40.0520   21.7080    8.6530 C.3    87  ARG87       0.0307
    142  CG        40.0190   21.6800   10.1560 C.3    87  ARG87       0.0489
    143  CD        39.0610   20.6910   10.7510 C.3    87  ARG87       0.2205
    144  NE        39.1990   20.6660   12.2000 N.pl3  87  ARG87      -0.0865
    145  CZ        38.6320   19.7800   13.0080 C.cat  87  ARG87       0.5346
    146  NH1       37.8520   18.8230   12.5160 N.pl3  87  ARG87       0.1354
    147  NH2       38.8400   19.8510   14.3190 N.pl3  87  ARG87       0.1354
    148  N         27.2040    8.7810   21.8420 N.3   123  HIS123     -0.1241
    149  CA        27.7110    8.7570   20.4700 C.3   123  HIS123      0.1621
    150  C         26.6570    8.1760   19.5200 C.2   123  HIS123      0.2264
    151  O         25.6910    7.5560   19.9610 O.2   123  HIS123     -0.2867
    152  CB        28.9670    7.8910   20.3770 C.3   123  HIS123      0.0745
    153  CG        30.2440    8.5990   20.7080 C.ar  123  HIS123      0.0817
    154  ND1       30.6040    8.9330   21.9950 N.ar  123  HIS123     -0.2268
    155  CD2       31.2750    8.9850   19.9190 C.ar  123  HIS123      0.1154
    156  CE1       31.7890    9.5200   21.9820 C.ar  123  HIS123      0.1986
    157  NE2       32.2170    9.5640   20.7340 N.ar  123  HIS123     -0.2212
    158  N         47.3840    5.3330   17.2130 N.3   145  TYR145     -0.1241
    159  CA        47.2270    6.3110   18.2660 C.3   145  TYR145      0.1605
    160  C         47.1390    5.6280   19.6190 C.2   145  TYR145      0.2264
    161  O         46.3210    4.7260   19.8180 O.2   145  TYR145     -0.2867
    162  CB        45.9600    7.1010   18.0140 C.3   145  TYR145      0.0534
    163  CG        45.7020    8.2150   18.9900 C.ar  145  TYR145     -0.0201
    164  CD1       46.3850    9.4310   18.8860 C.ar  145  TYR145     -0.0009
    165  CD2       44.7600    8.0740   19.9980 C.ar  145  TYR145     -0.0009
    166  CE1       46.1390   10.4680   19.7730 C.ar  145  TYR145      0.0417
    167  CE2       44.5080    9.1060   20.8830 C.ar  145  TYR145      0.0417
    168  CZ        45.1970   10.3030   20.7610 C.ar  145  TYR145      0.1957
    169  OH        44.9470   11.3420   21.6340 O.3   145  TYR145     -0.2866
    170  N         51.1210    9.4270   18.1920 N.3   150  TYR150     -0.1241
    171  CA        51.0300    8.6490   16.9760 C.3   150  TYR150      0.1605
    172  C         52.3180    7.8530   16.7700 C.2   150  TYR150      0.2264
    173  O         53.3720    8.4130   16.4870 O.2   150  TYR150     -0.2867
    174  CB        50.7850    9.5850   15.7980 C.3   150  TYR150      0.0534
    175  CG        49.4990   10.3640   15.8990 C.ar  150  TYR150     -0.0201
    176  CD1       48.3300    9.8830   15.3140 C.ar  150  TYR150     -0.0009
    177  CD2       49.4490   11.5880   16.5620 C.ar  150  TYR150     -0.0009
    178  CE1       47.1440   10.5820   15.3990 C.ar  150  TYR150      0.0417
    179  CE2       48.2560   12.2990   16.6580 C.ar  150  TYR150      0.0417
    180  CZ        47.1080   11.7830   16.0670 C.ar  150  TYR150      0.1957
    181  OH        45.9180   12.4570   16.1410 O.3   150  TYR150     -0.2866
@<TRIPOS>BOND
     1   140   139    2
     2   139   138    1
     3   100    99   ar
     4   100    98   ar
     5    99    97   ar
     6    98    96   ar
     7   138   137    1
     8   138   141    1
     9     8     9    1
    10    97    95   ar
    11     9    10    1
    12   141   142    1
    13    96    95   ar
    14   133   132    2
    15    95    94    1
    16    10    12   am
    17    10    11    2
    18   142   143    1
    19   132   131    1
    20    12    13    1
    21   135   134    1
    22     4     3    2
    23   143   144    1
    24    94    91    1
    25    15    14    2
    26   131   134    1
    27   131   130    1
    28   122   121    1
    29     3     2    1
    30   126   125    2
    31    13    14    1
    32    13    16    1
    33   134   136    1
    34    90    91    1
    35    14    20   am
    36    91    92    1
    37   144   145    2
    38   120   121    1
    39   120   119    1
    40    33    31    1
    41   146   145    1
    42   125   130   am
    43   125   124    1
    44    20    21    1
    45    17    16    1
    46    17    18    1
    47    25    24    1
    48   145   147    1
    49     2     1    1
    50     2     5    1
    51   118   119    1
    52   118   115    1
    53    21    24    1
    54    21    22    1
    55    92    93    2
    56    92   101   am
    57     7     5    1
    58    85    84    2
    59    32    31    1
    60     5     6    1
    61    27    22   am
    62    27    28    1
    63    31    28    1
    64    19    18    1
    65    24    26    1
    66   127   124    1
    67   127   128    1
    68    30    29    2
    69   124   123    1
    70    22    23    2
    71   117   116    2
    72   123   116   am
    73   123   129    1
    74   116   115    1
    75   101   102    1
    76   129   128    1
    77   115   114    1
    78    84    83    1
    79    28    29    1
    80    45    44    2
    81    44    43    1
    82    29    34   am
    83   114   108   am
    84    64    61    1
    85    49    50    1
    86    83    86    1
    87    83    82    1
    88   176   178   ar
    89   176   175   ar
    90   178   180   ar
    91   102   105    1
    92   102   103    1
    93   174   175    1
    94   174   171    1
    95    86    87    1
    96   175   177   ar
    97    34    35    1
    98    47    46    1
    99    42    43    1
   100    42    36   am
   101   106   103   am
   102   106   107    1
   103   180   181    1
   104   180   179   ar
   105    43    46    1
   106    88    87    2
   107    52    51    2
   108    50    51    1
   109    50    53    1
   110    51    60   am
   111    61    60    1
   112    61    62    1
   113    35    36    1
   114    35    38    1
   115   108   107    1
   116   108   109    2
   117   103   104    2
   118    87    89   am
   119    36    37    2
   120   173   172    2
   121   177   179   ar
   122    46    48    1
   123    55    57   ar
   124    55    54   ar
   125   172   171    1
   126    57    59   ar
   127   107   110    1
   128   171   170    1
   129   110   111    1
   130   158   159    1
   131    62    63    2
   132    62    65   am
   133    38    39    1
   134    53    54    1
   135    54    56   ar
   136    59    58   ar
   137   111   112    1
   138   111   113    1
   139   162   159    1
   140   162   163    1
   141    76    75    2
   142    65    66    1
   143   159   160    1
   144    56    58   ar
   145    68    67    2
   146    40    39    2
   147    39    41   am
   148   164   163   ar
   149   164   166   ar
   150    75    74    1
   151   163   165   ar
   152    67    66    1
   153    66    69    1
   154   150   151    2
   155   150   149    1
   156   160   161    2
   157   166   168   ar
   158   155   153   ar
   159   155   157   ar
   160    69    70    1
   161   165   167   ar
   162    77    74    1
   163    77    78    1
   164    74    73    1
   165   152   149    1
   166   152   153    1
   167   149   148    1
   168   153   154   ar
   169   157   156   ar
   170   168   167   ar
   171   168   169    1
   172    79    78    1
   173    79    80    1
   174    70    71   ar
   175    70    72   ar
   176    81    80    1
   177   156   154   ar
