@<TRIPOS>MOLECULE
tmp/2d3aG00.pdb
 177 164 0 0 0
SMALL
GASTEIGER

@<TRIPOS>ATOM
      1  N         68.4540  -35.4880   29.0850 N.3   127  GLU127     -0.1245
      2  CA        67.5680  -34.7480   28.2130 C.3   127  GLU127      0.1567
      3  C         66.5590  -34.0540   29.1010 C.2   127  GLU127      0.2260
      4  O         65.5740  -34.6500   29.4990 O.2   127  GLU127     -0.2867
      5  CB        66.7970  -35.6920   27.2890 C.3   127  GLU127      0.0388
      6  CG        67.6140  -36.4430   26.2940 C.3   127  GLU127      0.1160
      7  CD        66.7750  -37.4500   25.5490 C.2   127  GLU127      0.3649
      8  OE1       66.9290  -38.6740   25.8250 O.co2 127  GLU127     -0.2457
      9  OE2       65.9400  -37.0060   24.7050 O.co2 127  GLU127     -0.2457
     10  N         63.6150  -31.9170   29.5640 N.3   129  GLU129     -0.1245
     11  CA        62.3940  -31.3300   28.9780 C.3   129  GLU129      0.1567
     12  C         61.7660  -30.4080   30.0340 C.2   129  GLU129      0.2260
     13  O         61.9030  -30.6450   31.2470 O.2   129  GLU129     -0.2867
     14  CB        61.4080  -32.4100   28.5310 C.3   129  GLU129      0.0388
     15  CG        61.8390  -33.1520   27.2710 C.3   129  GLU129      0.1160
     16  CD        60.9330  -34.3310   26.9250 C.2   129  GLU129      0.3649
     17  OE1       60.9040  -34.7350   25.7330 O.co2 129  GLU129     -0.2457
     18  OE2       60.2480  -34.8500   27.8480 O.co2 129  GLU129     -0.2457
     19  N         56.4330  -30.3830   17.5570 N.3   156  TYR156     -0.1241
     20  CA        57.7190  -31.0400   17.6960 C.3   156  TYR156      0.1605
     21  C         58.6780  -30.5780   16.5850 C.2   156  TYR156      0.2264
     22  O         58.3860  -30.7440   15.3750 O.2   156  TYR156     -0.2867
     23  CB        57.5090  -32.5400   17.6010 C.3   156  TYR156      0.0534
     24  CG        58.7890  -33.3370   17.6030 C.ar  156  TYR156     -0.0201
     25  CD1       59.4570  -33.5650   18.7770 C.ar  156  TYR156     -0.0009
     26  CD2       59.3230  -33.8790   16.4110 C.ar  156  TYR156     -0.0009
     27  CE1       60.6160  -34.3180   18.8030 C.ar  156  TYR156      0.0417
     28  CE2       60.5240  -34.6490   16.4140 C.ar  156  TYR156      0.0417
     29  CZ        61.1430  -34.8720   17.6200 C.ar  156  TYR156      0.1957
     30  OH        62.3040  -35.6100   17.7150 O.3   156  TYR156     -0.2866
     31  N         65.9150  -29.0840   21.1790 N.3   188  ASN188     -0.1240
     32  CA        64.8040  -29.2640   20.2440 C.3   188  ASN188      0.1653
     33  C         63.4970  -28.7390   20.8240 C.2   188  ASN188      0.2266
     34  O         63.3420  -28.6770   22.0450 O.2   188  ASN188     -0.2867
     35  CB        64.6810  -30.7300   19.8130 C.3   188  ASN188      0.1155
     36  CG        64.3800  -31.6480   20.9560 C.2   188  ASN188      0.2627
     37  OD1       63.2220  -32.0150   21.1510 O.2   188  ASN188     -0.2716
     38  ND2       65.4010  -32.0170   21.7360 N.am  188  ASN188     -0.0877
     39  N         59.7380  -29.4850   21.6920 N.3   190  GLU190     -0.1231
     40  CA        59.0280  -30.7380   21.9930 C.3   190  GLU190      0.1699
     41  C         57.5830  -30.8700   21.4610 C.2   190  GLU190      0.2592
     42  O         57.1000  -30.0280   20.6870 O.2   190  GLU190     -0.2718
     43  CB        59.1200  -31.0880   23.4660 C.3   190  GLU190      0.0402
     44  CG        60.3110  -32.0230   23.7330 C.3   190  GLU190      0.1161
     45  CD        60.0960  -33.4400   23.2050 C.2   190  GLU190      0.3649
     46  OE1       58.9200  -33.7750   22.9310 O.co2 190  GLU190     -0.2457
     47  OE2       61.0810  -34.2140   23.0740 O.co2 190  GLU190     -0.2457
     48  N         56.9210  -31.9490   21.8520 N.am  191  VAL191     -0.1980
     49  CA        55.6380  -32.3140   21.2550 C.3   191  VAL191      0.1595
     50  C         54.4880  -31.3740   21.6530 C.2   191  VAL191      0.2287
     51  O         53.5880  -31.0850   20.8500 O.2   191  VAL191     -0.2864
     52  CB        55.2990  -33.8230   21.5400 C.3   191  VAL191      0.0276
     53  CG1       53.8960  -34.1960   21.0750 C.3   191  VAL191      0.0022
     54  CG2       56.3100  -34.6620   20.8260 C.3   191  VAL191      0.0022
     55  N         56.5890  -26.4290   24.9840 N.3   195  GLN195     -0.1245
     56  CA        57.4940  -27.3480   25.6390 C.3   195  GLN195      0.1566
     57  C         58.7780  -27.4690   24.8230 C.2   195  GLN195      0.2260
     58  O         58.7440  -27.5380   23.5980 O.2   195  GLN195     -0.2867
     59  CB        56.7970  -28.6950   25.7970 C.3   195  GLN195      0.0367
     60  CG        57.5250  -29.7080   26.6540 C.3   195  GLN195      0.0905
     61  CD        56.7310  -31.0010   26.7620 C.2   195  GLN195      0.2608
     62  OE1       56.0600  -31.2090   27.7610 O.2   195  GLN195     -0.2717
     63  NE2       56.7550  -31.8490   25.7210 N.am  195  GLN195     -0.0878
     64  N         63.3680  -28.6640   25.0450 N.3   197  GLU197     -0.1245
     65  CA        64.3030  -29.6320   25.5700 C.3   197  GLU197      0.1567
     66  C         65.7220  -29.1710   25.2970 C.2   197  GLU197      0.2260
     67  O         66.0010  -28.5700   24.2580 O.2   197  GLU197     -0.2867
     68  CB        64.0380  -30.9830   24.8840 C.3   197  GLU197      0.0388
     69  CG        65.0180  -32.0990   25.3030 C.3   197  GLU197      0.1160
     70  CD        64.7730  -33.3860   24.5520 C.2   197  GLU197      0.3649
     71  OE1       65.7520  -34.1420   24.3760 O.co2 197  GLU197     -0.2457
     72  OE2       63.6180  -33.6240   24.1360 O.co2 197  GLU197     -0.2457
     73  N         51.5270  -34.0300   26.0260 N.3   242  ASN242     -0.1225
     74  CA        52.6980  -34.7450   26.5380 C.3   242  ASN242      0.1785
     75  C         53.1440  -34.2460   27.8720 C.2   242  ASN242      0.2597
     76  O         52.9650  -33.0830   28.1790 O.2   242  ASN242     -0.2718
     77  CB        53.8380  -34.6400   25.5560 C.3   242  ASN242      0.1169
     78  CG        53.8170  -35.7350   24.5330 C.2   242  ASN242      0.2627
     79  OD1       52.7470  -36.1610   24.0450 O.2   242  ASN242     -0.2716
     80  ND2       55.0100  -36.2040   24.1850 N.am  242  ASN242     -0.0877
     81  N         53.7290  -35.1220   28.6620 N.am  243  GLY243     -0.1957
     82  CA        54.3310  -34.6930   29.9110 C.3   243  GLY243      0.1869
     83  C         55.7730  -34.3850   29.6800 C.2   243  GLY243      0.2309
     84  O         56.2090  -34.3570   28.5430 O.2   243  GLY243     -0.2863
     85  N         59.7520  -35.4410   30.6860 N.3   245  GLY245     -0.1225
     86  CA        60.7540  -36.2990   31.3160 C.3   245  GLY245      0.1811
     87  C         62.1220  -35.6670   31.4060 C.2   245  GLY245      0.2280
     88  O         62.3230  -34.5480   30.9700 O.2   245  GLY245     -0.2866
     89  N         64.9670  -37.9690   30.4360 N.3   247  HIS247     -0.1241
     90  CA        65.6220  -39.1790   29.9730 C.3   247  HIS247      0.1621
     91  C         67.1000  -39.1560   30.3130 C.2   247  HIS247      0.2264
     92  O         67.8000  -38.1460   30.0660 O.2   247  HIS247     -0.2867
     93  CB        65.4750  -39.2990   28.4790 C.3   247  HIS247      0.0745
     94  CG        64.0620  -39.2230   28.0100 C.ar  247  HIS247      0.0817
     95  ND1       63.7310  -39.0200   26.6860 N.ar  247  HIS247     -0.2268
     96  CD2       62.8890  -39.3310   28.6780 C.ar  247  HIS247      0.1154
     97  CE1       62.4110  -39.0190   26.5570 C.ar  247  HIS247      0.1986
     98  NE2       61.8780  -39.2040   27.7520 N.ar  247  HIS247     -0.2212
     99  N         52.5260  -38.6460   34.8240 N.3   289  ARG289     -0.1245
    100  CA        53.2280  -38.7500   33.5250 C.3   289  ARG289      0.1563
    101  C         53.2350  -40.1680   32.9420 C.2   289  ARG289      0.2260
    102  O         52.8010  -40.3710   31.7850 O.2   289  ARG289     -0.2867
    103  CB        54.6730  -38.2210   33.6040 C.3   289  ARG289      0.0307
    104  CG        55.4520  -38.4740   32.3070 C.3   289  ARG289      0.0489
    105  CD        56.7240  -37.6820   32.1860 C.3   289  ARG289      0.2205
    106  NE        57.8310  -38.3750   32.8250 N.pl3 289  ARG289     -0.0865
    107  CZ        58.8020  -39.0700   32.2040 C.cat 289  ARG289      0.5346
    108  NH1       58.8780  -39.1890   30.8860 N.pl3 289  ARG289      0.1354
    109  NH2       59.7500  -39.6390   32.9330 N.pl3 289  ARG289      0.1354
    110  N         51.3800  -41.1290   25.3720 N.3   294  HIS294     -0.1226
    111  CA        52.2410  -39.9380   25.1520 C.3   294  HIS294      0.1752
    112  C         53.7270  -40.2540   25.2940 C.2   294  HIS294      0.2596
    113  O         54.4650  -39.5060   25.9630 O.2   294  HIS294     -0.2718
    114  CB        51.8510  -38.7390   26.0540 C.3   294  HIS294      0.0759
    115  CG        50.3920  -38.4300   26.0110 C.ar  294  HIS294      0.0818
    116  ND1       49.7710  -37.9420   24.8760 N.ar  294  HIS294     -0.2268
    117  CD2       49.4140  -38.6180   26.9250 C.ar  294  HIS294      0.1154
    118  CE1       48.4790  -37.8050   25.1070 C.ar  294  HIS294      0.1986
    119  NE2       48.2350  -38.2170   26.3400 N.ar  294  HIS294     -0.2212
    120  N         54.1260  -41.3720   24.6630 N.am  295  GLU295     -0.1965
    121  CA        55.5050  -41.8240   24.5820 C.3   295  GLU295      0.1733
    122  C         56.1210  -42.0810   25.9490 C.2   295  GLU295      0.2617
    123  O         57.2810  -41.7150   26.2120 O.2   295  GLU295     -0.2715
    124  CB        56.3390  -40.8290   23.7840 C.3   295  GLU295      0.0429
    125  CG        55.7050  -40.4670   22.4530 C.3   295  GLU295      0.1163
    126  CD        56.5770  -39.5250   21.6330 C.2   295  GLU295      0.3649
    127  OE1       57.0640  -39.9900   20.5880 O.co2 295  GLU295     -0.2457
    128  OE2       56.7640  -38.3440   22.0220 O.co2 295  GLU295     -0.2457
    129  N         55.3310  -42.7070   26.8190 N.am  296  THR296     -0.1951
    130  CA        55.8220  -43.2040   28.1160 C.3   296  THR296      0.1897
    131  C         55.5070  -44.6990   28.2230 C.2   296  THR296      0.2313
    132  O         54.6760  -45.2160   27.4640 O.2   296  THR296     -0.2863
    133  CB        55.2030  -42.4220   29.3190 C.3   296  THR296      0.1794
    134  OG1       53.7810  -42.5840   29.3130 O.3   296  THR296     -0.2208
    135  CG2       55.5170  -40.9430   29.2380 C.3   296  THR296      0.0378
    136  N         59.7790  -45.9220   21.7750 N.3   309  ARG309     -0.1245
    137  CA        59.4710  -44.8010   22.6660 C.3   309  ARG309      0.1563
    138  C         58.2800  -45.1030   23.5780 C.2   309  ARG309      0.2260
    139  O         57.9390  -44.2750   24.4130 O.2   309  ARG309     -0.2867
    140  CB        59.3090  -43.4850   21.8760 C.3   309  ARG309      0.0307
    141  CG        60.6490  -42.7800   21.6340 C.3   309  ARG309      0.0489
    142  CD        60.5450  -41.4740   20.8430 C.3   309  ARG309      0.2205
    143  NE        61.5160  -41.4880   19.7430 N.pl3 309  ARG309     -0.0865
    144  CZ        62.7000  -40.8600   19.7020 C.cat 309  ARG309      0.5346
    145  NH1       63.1390  -40.0680   20.6820 N.pl3 309  ARG309      0.1354
    146  NH2       63.4560  -41.0260   18.6210 N.pl3 309  ARG309      0.1354
    147  N         65.1250  -47.6240   26.2050 N.3   314  ARG314     -0.1245
    148  CA        65.2350  -47.6860   24.7470 C.3   314  ARG314      0.1563
    149  C         66.7010  -47.7590   24.4030 C.2   314  ARG314      0.2260
    150  O         67.5420  -47.1130   25.0650 O.2   314  ARG314     -0.2867
    151  CB        64.5300  -46.4840   24.0960 C.3   314  ARG314      0.0307
    152  CG        65.0920  -46.0280   22.7280 C.3   314  ARG314      0.0489
    153  CD        64.2350  -44.9430   22.0440 C.3   314  ARG314      0.2205
    154  NE        64.9680  -44.1670   21.0280 N.pl3 314  ARG314     -0.0865
    155  CZ        65.4560  -42.9410   21.1970 C.cat 314  ARG314      0.5346
    156  NH1       65.3370  -42.2820   22.3540 N.pl3 314  ARG314      0.1354
    157  NH2       66.0860  -42.3680   20.1790 N.pl3 314  ARG314      0.1354
    158  N         68.9820  -45.5510   26.8660 N.3   328  GLU328     -0.1245
    159  CA        68.1900  -44.4520   27.3860 C.3   328  GLU328      0.1567
    160  C         67.2040  -44.9660   28.4440 C.2   328  GLU328      0.2260
    161  O         66.2950  -45.7700   28.1400 O.2   328  GLU328     -0.2867
    162  CB        67.4210  -43.7990   26.2090 C.3   328  GLU328      0.0388
    163  CG        66.6210  -42.5260   26.4960 C.3   328  GLU328      0.1160
    164  CD        65.5190  -42.2960   25.4640 C.2   328  GLU328      0.3649
    165  OE1       65.1250  -43.2610   24.7890 O.co2 328  GLU328     -0.2457
    166  OE2       65.0330  -41.1510   25.3160 O.co2 328  GLU328     -0.2457
    167  N         64.1360  -43.8520   30.1170 N.3   330  ARG330     -0.1245
    168  CA        63.1120  -42.8330   29.8800 C.3   330  ARG330      0.1563
    169  C         62.2610  -42.5030   31.0890 C.2   330  ARG330      0.2260
    170  O         61.3430  -41.6840   30.9990 O.2   330  ARG330     -0.2867
    171  CB        62.1670  -43.2470   28.7670 C.3   330  ARG330      0.0307
    172  CG        62.8400  -43.7590   27.5190 C.3   330  ARG330      0.0489
    173  CD        61.8650  -43.8220   26.3790 C.3   330  ARG330      0.2205
    174  NE        62.1780  -42.6880   25.5390 N.pl3 330  ARG330     -0.0865
    175  CZ        61.3250  -41.8150   25.0190 C.cat 330  ARG330      0.5346
    176  NH1       60.0110  -41.9060   25.1650 N.pl3 330  ARG330      0.1354
    177  NH2       61.8260  -40.8400   24.3050 N.pl3 330  ARG330      0.1354
@<TRIPOS>BOND
     1    22    21    2
     2    26    28   ar
     3    26    24   ar
     4    28    29   ar
     5    21    20    1
     6    19    20    1
     7    23    24    1
     8    23    20    1
     9    24    25   ar
    10    29    30    1
    11    29    27   ar
    12   146   144    1
    13    25    27   ar
    14   144   143    2
    15   144   145    1
    16   143   142    1
    17    35    32    1
    18    35    36    1
    19   157   155    1
    20    32    33    1
    21    32    31    1
    22   127   126   ar
    23    42    41    2
    24    33    34    2
    25    54    52    1
    26   142   141    1
    27    51    50    2
    28    36    37    2
    29    36    38   am
    30   154   155    2
    31   154   153    1
    32    53    52    1
    33   155   156    1
    34    49    52    1
    35    49    50    1
    36    49    48    1
    37    41    48   am
    38    41    40    1
    39   126   128   ar
    40   126   125    1
    41   141   140    1
    42    39    40    1
    43   136   137    1
    44   140   137    1
    45    40    43    1
    46   153   152    1
    47   125   124    1
    48   137   138    1
    49   152   151    1
    50    46    45   ar
    51    47    45   ar
    52    45    44    1
    53    43    44    1
    54   138   139    2
    55    58    57    2
    56   124   121    1
    57    79    78    2
    58   151   148    1
    59    72    70   ar
    60    80    78   am
    61    67    66    2
    62   177   175    1
    63    71    70   ar
    64   149   148    1
    65   149   150    2
    66    78    77    1
    67    70    69    1
    68   121   120    1
    69   121   122    1
    70   120   112   am
    71     9     7   ar
    72   148   147    1
    73   165   164   ar
    74    57    56    1
    75   116   118   ar
    76   116   115   ar
    77    68    69    1
    78    68    65    1
    79    55    56    1
    80   175   176    1
    81   175   174    2
    82    64    65    1
    83   118   119   ar
    84   111   112    1
    85   111   110    1
    86   111   114    1
    87   112   113    2
    88    66    65    1
    89   166   164   ar
    90   164   163    1
    91   174   173    1
    92     7     8   ar
    93     7     6    1
    94    77    74    1
    95    56    59    1
    96    63    61   am
    97    17    16   ar
    98    59    60    1
    99   122   123    2
   100   122   129   am
   101   115   114    1
   102   115   117   ar
   103    73    74    1
   104   162   163    1
   105   162   159    1
   106     6     5    1
   107   119   117   ar
   108   173   172    1
   109    74    75    1
   110    97    95   ar
   111    97    98   ar
   112    60    61    1
   113    95    94   ar
   114    61    62    2
   115   129   130    1
   116   158   159    1
   117    16    15    1
   118    16    18   ar
   119    15    14    1
   120     5     2    1
   121   159   160    1
   122   132   131    2
   123   172   171    1
   124    98    96   ar
   125    75    76    2
   126    75    81   am
   127    94    93    1
   128    94    96   ar
   129   130   131    1
   130   130   133    1
   131   161   160    2
   132     2     1    1
   133     2     3    1
   134    93    90    1
   135    14    11    1
   136    84    83    2
   137    81    82    1
   138   171   168    1
   139    11    10    1
   140    11    12    1
   141     3     4    2
   142   135   133    1
   143   134   133    1
   144    83    82    1
   145   168   167    1
   146   168   169    1
   147    90    91    1
   148    90    89    1
   149    12    13    2
   150    92    91    2
   151    85    86    1
   152   108   107    1
   153    88    87    2
   154   170   169    2
   155    86    87    1
   156   102   101    2
   157   105   104    1
   158   105   106    1
   159   107   106    2
   160   107   109    1
   161   104   103    1
   162   101   100    1
   163   100   103    1
   164   100    99    1
