@<TRIPOS>MOLECULE
tmp/2d3bC01.pdb
 217 207 0 0 0
SMALL
GASTEIGER

@<TRIPOS>ATOM
      1  N          0.7970   15.0590   -6.2980 N.3   123  TRP123     -0.1227
      2  CA         1.1350   14.1260   -5.2550 C.3   123  TRP123      0.1737
      3  C          2.5830   13.7470   -5.3910 C.2   123  TRP123      0.2595
      4  O          2.9960   13.2510   -6.4470 O.2   123  TRP123     -0.2718
      5  CB         0.3340   12.8600   -5.4680 C.3   123  TRP123      0.0564
      6  CG        -0.9720   12.8220   -4.7930 C.ar  123  TRP123      0.0003
      7  CD1       -1.6800   13.8820   -4.2930 C.ar  123  TRP123      0.0946
      8  CD2       -1.7700   11.6510   -4.5660 C.ar  123  TRP123      0.0152
      9  NE1       -2.8640   13.4370   -3.7460 N.ar  123  TRP123     -0.2442
     10  CE2       -2.9450   12.0730   -3.9030 C.ar  123  TRP123      0.0810
     11  CE3       -1.5980   10.2800   -4.8480 C.ar  123  TRP123      0.0012
     12  CZ2       -3.9500   11.1670   -3.5100 C.ar  123  TRP123      0.0191
     13  CZ3       -2.5950    9.3830   -4.4610 C.ar  123  TRP123      0.0001
     14  CH2       -3.7540    9.8320   -3.7930 C.ar  123  TRP123      0.0015
     15  N          3.3570   13.9380   -4.3310 N.am  124  TYR124     -0.1962
     16  CA         4.7320   13.4720   -4.3700 C.3   124  TYR124      0.1771
     17  C          5.0040   12.4180   -3.3160 C.2   124  TYR124      0.2620
     18  O          4.5700   12.5440   -2.1600 O.2   124  TYR124     -0.2715
     19  CB         5.6970   14.6250   -4.2030 C.3   124  TYR124      0.0574
     20  CG         5.4530   15.7680   -5.1370 C.ar  124  TYR124     -0.0198
     21  CD1        4.5050   16.7370   -4.8470 C.ar  124  TYR124     -0.0009
     22  CD2        6.1920   15.8970   -6.3130 C.ar  124  TYR124     -0.0009
     23  CE1        4.2950   17.7970   -5.7030 C.ar  124  TYR124      0.0417
     24  CE2        5.9840   16.9620   -7.1730 C.ar  124  TYR124      0.0417
     25  CZ         5.0320   17.8930   -6.8510 C.ar  124  TYR124      0.1957
     26  OH         4.8120   18.9360   -7.6680 O.3   124  TYR124     -0.2866
     27  N          5.7000   11.3700   -3.7400 N.am  125  GLY125     -0.1954
     28  CA         6.3420   10.4600   -2.8180 C.3   125  GLY125      0.1869
     29  C          7.8260   10.5600   -3.1020 C.2   125  GLY125      0.2309
     30  O          8.2630   10.2650   -4.2400 O.2   125  GLY125     -0.2863
     31  N         11.8690    9.5940   -2.1030 N.3   127  GLU127     -0.1245
     32  CA        12.6850    8.5490   -1.4800 C.3   127  GLU127      0.1567
     33  C         14.0240    9.1420   -1.1520 C.2   127  GLU127      0.2260
     34  O         14.8590    9.3110   -2.0380 O.2   127  GLU127     -0.2867
     35  CB        12.9370    7.3510   -2.4030 C.3   127  GLU127      0.0388
     36  CG        11.8240    7.0030   -3.3580 C.3   127  GLU127      0.1160
     37  CD        12.2250    5.9130   -4.2870 C.2   127  GLU127      0.3649
     38  OE1       12.0170    6.0460   -5.5120 O.co2 127  GLU127     -0.2457
     39  OE2       12.7690    4.9350   -3.7810 O.co2 127  GLU127     -0.2457
     40  N         17.5750    8.8710    0.2010 N.3   129  GLU129     -0.1245
     41  CA        18.6840    7.9810    0.5530 C.3   129  GLU129      0.1567
     42  C         19.6900    8.8290    1.3220 C.2   129  GLU129      0.2260
     43  O         19.6750   10.0420    1.1930 O.2   129  GLU129     -0.2867
     44  CB        19.3200    7.3480   -0.6820 C.3   129  GLU129      0.0388
     45  CG        18.5270    6.1500   -1.2420 C.3   129  GLU129      0.1160
     46  CD        18.7740    5.8460   -2.7390 C.2   129  GLU129      0.3649
     47  OE1       18.4110    4.7410   -3.1620 O.co2 129  GLU129     -0.2457
     48  OE2       19.3250    6.6740   -3.4900 O.co2 129  GLU129     -0.2457
     49  N         21.8600   -4.5380    0.3290 N.3   156  TYR156     -0.1241
     50  CA        20.4780   -4.1430   -0.0120 C.3   156  TYR156      0.1605
     51  C         19.4150   -4.9720    0.7120 C.2   156  TYR156      0.2264
     52  O         19.2870   -6.1660    0.4660 O.2   156  TYR156     -0.2867
     53  CB        20.2620   -4.2240   -1.5410 C.3   156  TYR156      0.0534
     54  CG        18.8450   -3.9140   -1.9880 C.ar  156  TYR156     -0.0201
     55  CD1       18.4590   -2.5910   -2.2430 C.ar  156  TYR156     -0.0009
     56  CD2       17.8840   -4.9310   -2.1420 C.ar  156  TYR156     -0.0009
     57  CE1       17.1540   -2.2780   -2.6410 C.ar  156  TYR156      0.0417
     58  CE2       16.5640   -4.6280   -2.5430 C.ar  156  TYR156      0.0417
     59  CZ        16.2060   -3.3020   -2.7910 C.ar  156  TYR156      0.1957
     60  OH        14.9270   -2.9790   -3.2000 O.3   156  TYR156     -0.2866
     61  N          6.3040    6.5100    4.4780 N.3   185  SER185     -0.1217
     62  CA         5.6170    5.4280    3.8140 C.3   185  SER185      0.1889
     63  C          6.3470    4.0900    3.8750 C.2   185  SER185      0.2288
     64  O          5.7590    3.0120    3.5960 O.2   185  SER185     -0.2866
     65  CB         5.3530    5.7970    2.3600 C.3   185  SER185      0.2089
     66  OG         6.5300    5.5860    1.5930 O.3   185  SER185     -0.2183
     67  N         14.0930    1.1740    3.8710 N.3   188  ASN188     -0.1240
     68  CA        14.8210   -0.0190    3.3880 C.3   188  ASN188      0.1653
     69  C         16.3610    0.1560    3.4340 C.2   188  ASN188      0.2266
     70  O         16.8780    1.2800    3.2260 O.2   188  ASN188     -0.2867
     71  CB        14.3810   -0.4110    1.9850 C.3   188  ASN188      0.1155
     72  CG        14.7610    0.6140    0.9620 C.2   188  ASN188      0.2627
     73  OD1       15.8460    0.5250    0.3710 O.2   188  ASN188     -0.2716
     74  ND2       13.8890    1.6200    0.7500 N.am  188  ASN188     -0.0877
     75  N         19.8990    0.1850    1.9190 N.3   190  GLU190     -0.1245
     76  CA        20.3380    0.4180    0.5340 C.3   190  GLU190      0.1567
     77  C         21.4980   -0.4550    0.0710 C.2   190  GLU190      0.2260
     78  O         21.9850   -1.3110    0.8390 O.2   190  GLU190     -0.2867
     79  CB        20.5750    1.8810    0.2470 C.3   190  GLU190      0.0388
     80  CG        19.3430    2.4970   -0.4340 C.3   190  GLU190      0.1160
     81  CD        19.0930    1.9150   -1.8150 C.2   190  GLU190      0.3649
     82  OE1       20.0730    1.8400   -2.6130 O.co2 190  GLU190     -0.2457
     83  OE2       17.9320    1.5370   -2.0830 O.co2 190  GLU190     -0.2457
     84  N         17.4110    4.2660    3.3640 N.3   197  GLU197     -0.1245
     85  CA        16.3740    4.9830    2.6640 C.3   197  GLU197      0.1567
     86  C         15.1490    5.1070    3.5330 C.2   197  GLU197      0.2260
     87  O         14.8770    4.2220    4.3550 O.2   197  GLU197     -0.2867
     88  CB        16.0080    4.2100    1.4090 C.3   197  GLU197      0.0388
     89  CG        15.0300    4.9020    0.5020 C.3   197  GLU197      0.1160
     90  CD        14.9410    4.2380   -0.8450 C.2   197  GLU197      0.3649
     91  OE1       13.8840    4.3560   -1.4810 O.co2 197  GLU197     -0.2457
     92  OE2       15.9140    3.5880   -1.2770 O.co2 197  GLU197     -0.2457
     93  N         10.9840    6.7470    2.6050 N.3   199  GLN199     -0.1245
     94  CA        10.1290    7.4690    1.6620 C.3   199  GLN199      0.1566
     95  C          9.0460    8.2480    2.3930 C.2   199  GLN199      0.2260
     96  O          8.3280    7.6860    3.2400 O.2   199  GLN199     -0.2867
     97  CB         9.4860    6.5100    0.6880 C.3   199  GLN199      0.0367
     98  CG        10.4400    5.4990    0.0820 C.3   199  GLN199      0.0905
     99  CD        10.4570    4.1560    0.8180 C.2   199  GLN199      0.2608
    100  OE1       11.5090    3.5160    0.9460 O.2   199  GLN199     -0.2717
    101  NE2        9.2920    3.7180    1.2840 N.am  199  GLN199     -0.0878
    102  N          5.7030    9.3590    2.0280 N.3   201  GLY201     -0.1210
    103  CA         4.5800    8.7800    1.2560 C.3   201  GLY201      0.1940
    104  C          3.7040    9.8250    0.6170 C.2   201  GLY201      0.2453
    105  O          3.8650   11.0240    0.9010 O.2   201  GLY201     -0.2732
    106  N          2.7450    9.3920   -0.2280 N.am  202  PRO202     -0.2728
    107  CA         2.1300   10.3770   -1.1410 C.3   202  PRO202      0.1401
    108  C          1.6330   11.6510   -0.3910 C.2   202  PRO202      0.2269
    109  O          0.7410   11.5720    0.4370 O.2   202  PRO202     -0.2865
    110  CB         0.9920    9.5790   -1.7860 C.3   202  PRO202      0.0296
    111  CG         0.7740    8.3890   -0.8440 C.3   202  PRO202      0.0237
    112  CD         2.1250    8.0560   -0.3360 C.3   202  PRO202      0.0939
    113  N         14.9920   10.1730   -5.2600 N.3   247  HIS247     -0.1241
    114  CA        14.0110    9.9010   -6.3130 C.3   247  HIS247      0.1621
    115  C         12.7070   10.5680   -5.9130 C.2   247  HIS247      0.2264
    116  O         12.2620   10.4400   -4.7480 O.2   247  HIS247     -0.2867
    117  CB        13.7910    8.3930   -6.5640 C.3   247  HIS247      0.0745
    118  CG        15.0560    7.6250   -6.8300 C.ar  247  HIS247      0.0817
    119  ND1       15.1800    6.2740   -6.5580 N.ar  247  HIS247     -0.2268
    120  CD2       16.2660    8.0270   -7.3050 C.ar  247  HIS247      0.1154
    121  CE1       16.4030    5.8790   -6.8670 C.ar  247  HIS247      0.1986
    122  NE2       17.0830    6.9240   -7.3200 N.ar  247  HIS247     -0.2212
    123  N          8.8130   10.5160   -6.8800 N.3   249  ASN249     -0.1225
    124  CA         7.6660    9.9690   -7.5740 C.3   249  ASN249      0.1785
    125  C          6.5480   11.0110   -7.5970 C.2   249  ASN249      0.2597
    126  O          6.4070   11.8080   -6.6460 O.2   249  ASN249     -0.2718
    127  CB         7.1960    8.6790   -6.9310 C.3   249  ASN249      0.1169
    128  CG         8.2940    7.6810   -6.7870 C.2   249  ASN249      0.2627
    129  OD1        8.3960    6.7080   -7.5410 O.2   249  ASN249     -0.2716
    130  ND2        9.1410    7.9140   -5.8100 N.am  249  ASN249     -0.0877
    131  N          5.7610   10.9920   -8.6790 N.am  250  TYR250     -0.1962
    132  CA         4.8410   12.0800   -9.0120 C.3   250  TYR250      0.1771
    133  C          3.5940   11.6100   -9.7210 C.2   250  TYR250      0.2620
    134  O          3.6570   10.7230  -10.5570 O.2   250  TYR250     -0.2715
    135  CB         5.5610   13.0690   -9.9090 C.3   250  TYR250      0.0574
    136  CG         4.7880   14.2810  -10.3380 C.ar  250  TYR250     -0.0198
    137  CD1        4.6310   14.5510  -11.6830 C.ar  250  TYR250     -0.0009
    138  CD2        4.2540   15.1840   -9.4110 C.ar  250  TYR250     -0.0009
    139  CE1        3.9480   15.7000  -12.1200 C.ar  250  TYR250      0.0417
    140  CE2        3.5570   16.3300   -9.8230 C.ar  250  TYR250      0.0417
    141  CZ         3.4110   16.5910  -11.1900 C.ar  250  TYR250      0.1957
    142  OH         2.7470   17.7230  -11.6480 O.3   250  TYR250     -0.2866
    143  N          2.4650   12.2210   -9.3760 N.am  251  SER251     -0.1950
    144  CA         1.1980   12.0140  -10.0860 C.3   251  SER251      0.1924
    145  C          0.2350   13.2310   -9.9530 C.2   251  SER251      0.2314
    146  O          0.2950   13.9830   -8.9630 O.2   251  SER251     -0.2863
    147  CB         0.5300   10.6880   -9.6660 C.3   251  SER251      0.2116
    148  OG        -0.3370   10.8530   -8.5680 O.3   251  SER251     -0.2180
    149  N         -3.8400    9.6030  -12.3580 N.3   256  ARG256     -0.1245
    150  CA        -4.2630    8.4240  -11.5790 C.3   256  ARG256      0.1563
    151  C         -5.6970    7.9790  -11.8890 C.2   256  ARG256      0.2260
    152  O         -6.1540    6.9300  -11.4210 O.2   256  ARG256     -0.2867
    153  CB        -4.0210    8.6220  -10.0730 C.3   256  ARG256      0.0307
    154  CG        -4.0880   10.0720   -9.6100 C.3   256  ARG256      0.0489
    155  CD        -3.8110   10.2020   -8.1120 C.3   256  ARG256      0.2205
    156  NE        -4.3100   11.4770   -7.6000 N.pl3 256  ARG256     -0.0865
    157  CZ        -3.6070   12.6030   -7.5860 C.cat 256  ARG256      0.5346
    158  NH1       -2.3600   12.6330   -8.0430 N.pl3 256  ARG256      0.1354
    159  NH2       -4.1550   13.7040   -7.1100 N.pl3 256  ARG256      0.1354
    160  N         15.9050    0.6980  -14.1160 N.3   309  ARG309     -0.1245
    161  CA        16.6480    1.4880  -13.1200 C.3   309  ARG309      0.1563
    162  C         17.8830    2.1970  -13.6860 C.2   309  ARG309      0.2260
    163  O         18.4220    3.1000  -13.0640 O.2   309  ARG309     -0.2867
    164  CB        16.9620    0.6630  -11.8590 C.3   309  ARG309      0.0307
    165  CG        15.8080    0.6920  -10.8550 C.3   309  ARG309      0.0489
    166  CD        16.0120   -0.1490   -9.6200 C.3   309  ARG309      0.2205
    167  NE        14.8210   -0.9640   -9.3720 N.pl3 309  ARG309     -0.0865
    168  CZ        13.9380   -0.7790   -8.3910 C.cat 309  ARG309      0.5346
    169  NH1       14.0970    0.1950   -7.5040 N.pl3 309  ARG309      0.1354
    170  NH2       12.8940   -1.5920   -8.2870 N.pl3 309  ARG309      0.1354
    171  N         11.5400    6.4190  -14.5910 N.3   314  ARG314     -0.1245
    172  CA        11.0840    5.0400  -14.6180 C.3   314  ARG314      0.1563
    173  C          9.5740    5.0290  -14.3680 C.2   314  ARG314      0.2260
    174  O          9.0650    5.8640  -13.6200 O.2   314  ARG314     -0.2867
    175  CB        11.8700    4.2090  -13.5930 C.3   314  ARG314      0.0307
    176  CG        11.1880    2.9470  -13.0810 C.3   314  ARG314      0.0489
    177  CD        12.1200    2.1550  -12.1960 C.3   314  ARG314      0.2205
    178  NE        11.3980    1.1800  -11.3860 N.pl3 314  ARG314     -0.0865
    179  CZ        11.2610    1.2330  -10.0610 C.cat 314  ARG314      0.5346
    180  NH1       11.8080    2.2270   -9.3560 N.pl3 314  ARG314      0.1354
    181  NH2       10.5710    0.2800   -9.4360 N.pl3 314  ARG314      0.1354
    182  N         -1.3010    5.6510  -13.0160 N.3   325  GLY325     -0.1210
    183  CA        -0.3910    5.6110  -11.8800 C.3   325  GLY325      0.1956
    184  C          0.4660    6.8530  -11.6760 C.2   325  GLY325      0.2611
    185  O         -0.0400    7.9930  -11.7190 O.2   325  GLY325     -0.2717
    186  N          1.7580    6.6160  -11.4200 N.am  326  TYR326     -0.1976
    187  CA         2.7500    7.6730  -11.1700 C.3   326  TYR326      0.1639
    188  C          4.0450    7.3030  -11.8970 C.2   326  TYR326      0.2290
    189  O          4.2220    6.1470  -12.3020 O.2   326  TYR326     -0.2864
    190  CB         3.0120    7.8430   -9.6550 C.3   326  TYR326      0.0560
    191  CG         3.5050    6.5870   -8.9800 C.ar  326  TYR326     -0.0198
    192  CD1        4.8310    6.1770   -9.1010 C.ar  326  TYR326     -0.0009
    193  CD2        2.6420    5.7930   -8.2370 C.ar  326  TYR326     -0.0009
    194  CE1        5.2800    4.9930   -8.4930 C.ar  326  TYR326      0.0417
    195  CE2        3.0890    4.6050   -7.6160 C.ar  326  TYR326      0.0417
    196  CZ         4.3960    4.2160   -7.7560 C.ar  326  TYR326      0.1957
    197  OH         4.8000    3.0630   -7.1510 O.3   326  TYR326     -0.2866
    198  N          8.5670    7.9700  -11.6950 N.3   328  GLU328     -0.1245
    199  CA         9.6570    8.1890  -10.7460 C.3   328  GLU328      0.1567
    200  C         10.7920    8.9420  -11.4520 C.2   328  GLU328      0.2260
    201  O         11.4450    8.3870  -12.3280 O.2   328  GLU328     -0.2867
    202  CB        10.1340    6.8280  -10.2220 C.3   328  GLU328      0.0388
    203  CG        11.3020    6.8460   -9.2880 C.3   328  GLU328      0.1160
    204  CD        12.0590    5.5450   -9.2860 C.2   328  GLU328      0.3649
    205  OE1       11.9930    4.7880  -10.2580 O.co2 328  GLU328     -0.2457
    206  OE2       12.7460    5.2780   -8.2990 O.co2 328  GLU328     -0.2457
    207  N         14.3070    9.8470  -11.2870 N.3   330  ARG330     -0.1245
    208  CA        15.4510    9.3370  -10.5100 C.3   330  ARG330      0.1563
    209  C         16.6410   10.2900  -10.4790 C.2   330  ARG330      0.2260
    210  O         17.6640   10.0010   -9.8580 O.2   330  ARG330     -0.2867
    211  CB        15.9210    7.9920  -11.0570 C.3   330  ARG330      0.0307
    212  CG        14.8210    7.0610  -11.4590 C.3   330  ARG330      0.0489
    213  CD        15.3750    5.7120  -11.6950 C.3   330  ARG330      0.2205
    214  NE        15.3300    4.9890  -10.4580 N.pl3 330  ARG330     -0.0865
    215  CZ        16.3090    4.2040  -10.0650 C.cat 330  ARG330      0.5346
    216  NH1       17.3870    4.0870  -10.8300 N.pl3 330  ARG330      0.1354
    217  NH2       16.2170    3.5600   -8.9050 N.pl3 330  ARG330      0.1354
@<TRIPOS>BOND
     1   172   171    1
     2   172   173    1
     3   172   175    1
     4   173   174    2
     5   160   161    1
     6   162   161    1
     7   162   163    2
     8   175   176    1
     9   161   164    1
    10   176   177    1
    11   182   183    1
    12   149   150    1
    13   201   200    2
    14   189   188    2
    15   177   178    1
    16   139   137   ar
    17   139   141   ar
    18   188   187    1
    19   151   150    1
    20   151   152    2
    21   183   184    1
    22   164   165    1
    23   185   184    2
    24   198   199    1
    25   213   212    1
    26   213   214    1
    27   137   136   ar
    28   184   186   am
    29   142   141    1
    30   150   153    1
    31   212   211    1
    32   200   199    1
    33   186   187    1
    34   178   179    2
    35   207   208    1
    36   141   140   ar
    37   187   190    1
    38   211   208    1
    39   165   166    1
    40   216   215    1
    41   199   202    1
    42   134   133    2
    43   208   209    1
    44   209   210    2
    45   214   215    2
    46   136   135    1
    47   136   138   ar
    48   205   204   ar
    49   202   203    1
    50   144   145    1
    51   144   147    1
    52   144   143    1
    53   153   154    1
    54   215   217    1
    55   179   181    1
    56   179   180    1
    57   145   146    2
    58   135   132    1
    59   140   138   ar
    60   133   143   am
    61   133   132    1
    62   147   148    1
    63   190   191    1
    64   166   167    1
    65   154   155    1
    66   167   168    2
    67   203   204    1
    68   204   206   ar
    69   192   191   ar
    70   192   194   ar
    71   132   131    1
    72   191   193   ar
    73   131   125   am
    74   194   196   ar
    75   168   170    1
    76   168   169    1
    77   193   195   ar
    78   155   156    1
    79   158   157    1
    80   196   195   ar
    81   196   197    1
    82    26    25    1
    83   156   157    2
    84   125   124    1
    85   125   126    2
    86   157   159    1
    87   124   127    1
    88   124   123    1
    89   129   128    2
    90   122   120   ar
    91   122   121   ar
    92   120   118   ar
    93    24    25   ar
    94    24    22   ar
    95   127   128    1
    96   121   119   ar
    97    25    23   ar
    98   118   117    1
    99   118   119   ar
   100   128   130   am
   101   117   114    1
   102     4     3    2
   103    22    20   ar
   104   114   115    1
   105   114   113    1
   106     1     2    1
   107   115   116    2
   108    23    21   ar
   109    38    37   ar
   110     5     2    1
   111     5     6    1
   112     3     2    1
   113     3    15   am
   114    20    21   ar
   115    20    19    1
   116    11     8   ar
   117    11    13   ar
   118     6     8   ar
   119     6     7   ar
   120     8    10   ar
   121    13    14   ar
   122    16    15    1
   123    16    19    1
   124    16    17    1
   125     7     9   ar
   126    37    39   ar
   127    37    36    1
   128    30    29    2
   129    10     9   ar
   130    10    12   ar
   131    14    12   ar
   132    27    17   am
   133    27    28    1
   134    48    46   ar
   135    36    35    1
   136    17    18    2
   137    60    59    1
   138    47    46   ar
   139    29    28    1
   140    59    57   ar
   141    59    58   ar
   142    46    45    1
   143    57    55   ar
   144    82    81   ar
   145    58    56   ar
   146    35    32    1
   147    55    54   ar
   148    56    54   ar
   149    31    32    1
   150    83    81   ar
   151    34    33    2
   152    54    53    1
   153    81    80    1
   154   110   107    1
   155   110   111    1
   156    53    50    1
   157    91    90   ar
   158    32    33    1
   159    92    90   ar
   160    45    44    1
   161   107   108    1
   162   107   106    1
   163    90    89    1
   164   111   112    1
   165    44    41    1
   166    80    79    1
   167   108   109    2
   168   112   106    1
   169   106   104   am
   170    50    49    1
   171    50    51    1
   172    77    76    1
   173    77    78    2
   174    98    97    1
   175    98    99    1
   176    40    41    1
   177    79    76    1
   178    73    72    2
   179    52    51    2
   180    89    88    1
   181    76    75    1
   182    41    42    1
   183   104   105    2
   184   104   103    1
   185    97    94    1
   186    74    72   am
   187    99   100    2
   188    99   101   am
   189    72    71    1
   190    43    42    2
   191   103   102    1
   192    88    85    1
   193    66    65    1
   194    94    95    1
   195    94    93    1
   196    71    68    1
   197    65    62    1
   198    95    96    2
   199    85    84    1
   200    85    86    1
   201    70    69    2
   202    68    69    1
   203    68    67    1
   204    86    87    2
   205    64    63    2
   206    62    63    1
   207    62    61    1
