@<TRIPOS>MOLECULE
tmp/2d3bA00.pdb
 158 147 0 0 0
SMALL
GASTEIGER

@<TRIPOS>ATOM
      1  N         26.6900   13.7880   64.1060 N.3   127  GLU127     -0.1245
      2  CA        27.0760   14.1210   62.7450 C.3   127  GLU127      0.1567
      3  C         28.2060   13.2480   62.3440 C.2   127  GLU127      0.2260
      4  O         29.3580   13.5460   62.6900 O.2   127  GLU127     -0.2867
      5  CB        27.6080   15.5490   62.6300 C.3   127  GLU127      0.0388
      6  CG        26.9920   16.5620   63.5560 C.3   127  GLU127      0.1160
      7  CD        27.6530   17.9120   63.4150 C.2   127  GLU127      0.3649
      8  OE1       27.9230   18.5960   64.4240 O.co2 127  GLU127     -0.2457
      9  OE2       27.9130   18.2780   62.2840 O.co2 127  GLU127     -0.2457
     10  N         30.9100   12.0570   59.9140 N.3   129  GLU129     -0.1245
     11  CA        31.6980   12.3800   58.7200 C.3   129  GLU129      0.1567
     12  C         32.3240   11.0720   58.2680 C.2   129  GLU129      0.2260
     13  O         32.3630   10.1070   59.0450 O.2   129  GLU129     -0.2867
     14  CB        32.7350   13.4820   58.9740 C.3   129  GLU129      0.0388
     15  CG        32.1140   14.9040   58.9760 C.3   129  GLU129      0.1160
     16  CD        32.8790   15.9780   59.7790 C.2   129  GLU129      0.3649
     17  OE1       32.5340   17.1570   59.6280 O.co2 129  GLU129     -0.2457
     18  OE2       33.7960   15.6760   60.5670 O.co2 129  GLU129     -0.2457
     19  N         33.6460   22.1080   50.4020 N.3   156  TYR156     -0.1241
     20  CA        32.5710   22.1860   51.3960 C.3   156  TYR156      0.1605
     21  C         31.2490   22.6380   50.7700 C.2   156  TYR156      0.2264
     22  O         31.1240   23.7680   50.3100 O.2   156  TYR156     -0.2867
     23  CB        32.9720   23.1330   52.5450 C.3   156  TYR156      0.0534
     24  CG        31.8700   23.3690   53.5800 C.ar  156  TYR156     -0.0201
     25  CD1       31.7000   22.4800   54.6570 C.ar  156  TYR156     -0.0009
     26  CD2       30.9900   24.4860   53.4960 C.ar  156  TYR156     -0.0009
     27  CE1       30.6840   22.6980   55.6200 C.ar  156  TYR156      0.0417
     28  CE2       29.9760   24.7000   54.4590 C.ar  156  TYR156      0.0417
     29  CZ        29.8320   23.8020   55.5120 C.ar  156  TYR156      0.1957
     30  OH        28.8570   23.9720   56.4660 O.3   156  TYR156     -0.2866
     31  N         31.6400   17.6970   52.6960 N.3   190  GLU190     -0.1231
     32  CA        32.5530   18.2390   53.6830 C.3   190  GLU190      0.1699
     33  C         33.7410   18.9710   53.0740 C.2   190  GLU190      0.2592
     34  O         33.8530   19.0300   51.8550 O.2   190  GLU190     -0.2718
     35  CB        32.9760   17.1790   54.7010 C.3   190  GLU190      0.0402
     36  CG        32.2310   17.2960   56.0290 C.3   190  GLU190      0.1161
     37  CD        32.5380   18.5780   56.7400 C.2   190  GLU190      0.3649
     38  OE1       33.7410   18.9320   56.8950 O.co2 190  GLU190     -0.2457
     39  OE2       31.5570   19.2250   57.1280 O.co2 190  GLU190     -0.2457
     40  N         34.6110   19.5180   53.9360 N.am  191  VAL191     -0.1980
     41  CA        35.7070   20.4060   53.5560 C.3   191  VAL191      0.1595
     42  C         36.7720   19.7720   52.6850 C.2   191  VAL191      0.2287
     43  O         37.2460   20.3880   51.7500 O.2   191  VAL191     -0.2864
     44  CB        36.3810   20.9190   54.7840 C.3   191  VAL191      0.0276
     45  CG1       37.6760   21.6180   54.4210 C.3   191  VAL191      0.0022
     46  CG2       35.4250   21.8230   55.5310 C.3   191  VAL191      0.0022
     47  N         35.0240   13.9270   51.0290 N.3   195  GLN195     -0.1245
     48  CA        34.5580   13.7310   52.3860 C.3   195  GLN195      0.1566
     49  C         33.1380   14.2250   52.5140 C.2   195  GLN195      0.2260
     50  O         32.7720   15.2360   51.9160 O.2   195  GLN195     -0.2867
     51  CB        35.4850   14.4840   53.3190 C.3   195  GLN195      0.0367
     52  CG        35.3340   14.2210   54.8070 C.3   195  GLN195      0.0905
     53  CD        36.4530   14.9260   55.6350 C.2   195  GLN195      0.2608
     54  OE1       37.4230   14.2620   56.0280 O.2   195  GLN195     -0.2717
     55  NE2       36.3250   16.2770   55.8860 N.am  195  GLN195     -0.0878
     56  N         29.1230   14.0020   54.9660 N.3   197  GLU197     -0.1245
     57  CA        28.5050   14.0110   56.2760 C.3   197  GLU197      0.1567
     58  C         27.0350   13.6150   56.1780 C.2   197  GLU197      0.2260
     59  O         26.3900   13.8140   55.1440 O.2   197  GLU197     -0.2867
     60  CB        28.6400   15.3930   56.8860 C.3   197  GLU197      0.0388
     61  CG        28.1630   15.5180   58.3010 C.3   197  GLU197      0.1160
     62  CD        28.5550   16.8610   58.9200 C.2   197  GLU197      0.3649
     63  OE1       27.7790   17.3770   59.7500 O.co2 197  GLU197     -0.2457
     64  OE2       29.6300   17.4120   58.5750 O.co2 197  GLU197     -0.2457
     65  N         41.3870   18.1460   56.1520 N.3   242  ASN242     -0.1225
     66  CA        40.5450   17.8970   57.3160 C.3   242  ASN242      0.1785
     67  C         40.4610   16.4440   57.7120 C.2   242  ASN242      0.2597
     68  O         40.5030   15.5320   56.8690 O.2   242  ASN242     -0.2718
     69  CB        39.1320   18.4000   57.0810 C.3   242  ASN242      0.1169
     70  CG        38.9720   19.8680   57.4270 C.2   242  ASN242      0.2627
     71  OD1       39.8860   20.6840   57.2760 O.2   242  ASN242     -0.2716
     72  ND2       37.7880   20.2140   57.8860 N.am  242  ASN242     -0.0877
     73  N         40.3520   16.2240   59.0160 N.am  243  GLY243     -0.1957
     74  CA        40.0870   14.8990   59.5440 C.3   243  GLY243      0.1869
     75  C         38.5890   14.7830   59.6190 C.2   243  GLY243      0.2309
     76  O         37.8670   15.7030   59.2070 O.2   243  GLY243     -0.2863
     77  N         35.3080   13.7520   62.1130 N.3   245  GLY245     -0.1225
     78  CA        34.7410   13.5790   63.4380 C.3   245  GLY245      0.1811
     79  C         33.2980   13.0990   63.4400 C.2   245  GLY245      0.2280
     80  O         32.6150   13.0980   62.4010 O.2   245  GLY245     -0.2866
     81  N         30.7440   14.4940   65.5360 N.3   247  HIS247     -0.1241
     82  CA        30.2670   15.4790   66.4950 C.3   247  HIS247      0.1621
     83  C         28.9780   14.9770   67.1070 C.2   247  HIS247      0.2264
     84  O         28.0770   14.5330   66.3910 O.2   247  HIS247     -0.2867
     85  CB        30.0360   16.8440   65.8590 C.3   247  HIS247      0.0745
     86  CG        31.2340   17.4200   65.1720 C.ar  247  HIS247      0.0817
     87  ND1       31.1340   18.4090   64.2180 N.ar  247  HIS247     -0.2268
     88  CD2       32.5570   17.1420   65.2890 C.ar  247  HIS247      0.1154
     89  CE1       32.3450   18.7190   63.7810 C.ar  247  HIS247      0.1986
     90  NE2       33.2260   17.9630   64.4140 N.ar  247  HIS247     -0.2212
     91  N         43.9500   13.4720   64.4920 N.3   289  ARG289     -0.1245
     92  CA        42.9150   14.4360   64.0990 C.3   289  ARG289      0.1563
     93  C         42.9720   15.7140   64.8980 C.2   289  ARG289      0.2260
     94  O         43.1310   16.7920   64.3180 O.2   289  ARG289     -0.2867
     95  CB        41.5110   13.8620   64.2120 C.3   289  ARG289      0.0307
     96  CG        40.4750   14.9160   63.8810 C.3   289  ARG289      0.0489
     97  CD        39.1070   14.3390   63.6230 C.3   289  ARG289      0.2205
     98  NE        38.4110   14.0640   64.8670 N.pl3 289  ARG289     -0.0865
     99  CZ        37.4590   14.8260   65.3880 C.cat 289  ARG289      0.5346
    100  NH1       37.0660   15.9260   64.7520 N.pl3 289  ARG289      0.1354
    101  NH2       36.9020   14.4690   66.5440 N.pl3 289  ARG289      0.1354
    102  N         42.3870   22.8210   61.5510 N.3   294  HIS294     -0.1226
    103  CA        41.3710   22.1140   60.7460 C.3   294  HIS294      0.1752
    104  C         40.0280   21.9830   61.4700 C.2   294  HIS294      0.2596
    105  O         39.3520   20.9520   61.3580 O.2   294  HIS294     -0.2718
    106  CB        41.8610   20.7210   60.2800 C.3   294  HIS294      0.0759
    107  CG        43.1280   20.7500   59.4800 C.ar  294  HIS294      0.0818
    108  ND1       43.2170   21.3790   58.2570 N.ar  294  HIS294     -0.2268
    109  CD2       44.3510   20.2160   59.7210 C.ar  294  HIS294      0.1154
    110  CE1       44.4450   21.2440   57.7850 C.ar  294  HIS294      0.1986
    111  NE2       45.1520   20.5430   58.6530 N.ar  294  HIS294     -0.2212
    112  N         39.6510   23.0280   62.2070 N.am  295  GLU295     -0.1965
    113  CA        38.3760   23.0530   62.9280 C.3   295  GLU295      0.1733
    114  C         38.2810   21.9270   63.9780 C.2   295  GLU295      0.2617
    115  O         37.2590   21.2440   64.1030 O.2   295  GLU295     -0.2715
    116  CB        37.1910   23.0160   61.9480 C.3   295  GLU295      0.0429
    117  CG        37.2220   24.1350   60.9250 C.3   295  GLU295      0.1163
    118  CD        36.2520   23.9300   59.8030 C.2   295  GLU295      0.3649
    119  OE1       35.9270   24.9380   59.1530 O.co2 295  GLU295     -0.2457
    120  OE2       35.8160   22.7810   59.5750 O.co2 295  GLU295     -0.2457
    121  N         39.3760   21.7370   64.7120 N.am  296  THR296     -0.1951
    122  CA        39.4230   20.8460   65.8710 C.3   296  THR296      0.1897
    123  C         40.1010   21.5640   67.0300 C.2   296  THR296      0.2313
    124  O         40.8010   22.5650   66.8300 O.2   296  THR296     -0.2863
    125  CB        40.2240   19.5680   65.6000 C.3   296  THR296      0.1794
    126  OG1       41.5640   19.9000   65.2170 O.3   296  THR296     -0.2208
    127  CG2       39.5560   18.7350   64.5220 C.3   296  THR296      0.0378
    128  N         34.4320   27.0210   66.1440 N.3   309  ARG309     -0.1245
    129  CA        34.7600   25.7090   65.6070 C.3   309  ARG309      0.1563
    130  C         36.1800   25.2600   65.9630 C.2   309  ARG309      0.2260
    131  O         36.5080   24.0870   65.8310 O.2   309  ARG309     -0.2867
    132  CB        34.4600   25.6230   64.0950 C.3   309  ARG309      0.0307
    133  CG        33.0010   25.2420   63.8050 C.3   309  ARG309      0.0489
    134  CD        32.6290   25.1840   62.3460 C.3   309  ARG309      0.2205
    135  NE        31.3540   25.8690   62.1620 N.pl3 309  ARG309     -0.0865
    136  CZ        30.1840   25.2910   61.8970 C.cat 309  ARG309      0.5346
    137  NH1       30.0930   23.9890   61.7380 N.pl3 309  ARG309      0.1354
    138  NH2       29.0950   26.0390   61.7620 N.pl3 309  ARG309      0.1354
    139  N         27.3120   21.0510   71.3390 N.3   328  GLU328     -0.1245
    140  CA        27.9650   20.1490   70.3960 C.3   328  GLU328      0.1567
    141  C         29.3260   19.7580   70.9640 C.2   328  GLU328      0.2260
    142  O         30.2040   20.6080   71.1360 O.2   328  GLU328     -0.2867
    143  CB        28.0950   20.8710   69.0290 C.3   328  GLU328      0.0388
    144  CG        28.7810   20.1040   67.9020 C.3   328  GLU328      0.1160
    145  CD        29.3820   21.0060   66.8520 C.2   328  GLU328      0.3649
    146  OE1       29.6230   22.1970   67.1180 O.co2 328  GLU328     -0.2457
    147  OE2       29.6350   20.5050   65.7490 O.co2 328  GLU328     -0.2457
    148  N         32.5830   18.3110   70.0780 N.3   330  ARG330     -0.1245
    149  CA        33.2910   18.1250   68.7930 C.3   330  ARG330      0.1563
    150  C         34.4300   17.1320   68.8640 C.2   330  ARG330      0.2260
    151  O         35.0920   16.8890   67.8600 O.2   330  ARG330     -0.2867
    152  CB        33.8410   19.4400   68.2430 C.3   330  ARG330      0.0307
    153  CG        32.8960   20.5980   68.3520 C.3   330  ARG330      0.0489
    154  CD        33.3230   21.7250   67.4600 C.3   330  ARG330      0.2205
    155  NE        32.7120   21.5830   66.1470 N.pl3 330  ARG330     -0.0865
    156  CZ        33.3660   21.8010   65.0200 C.cat 330  ARG330      0.5346
    157  NH1       34.6450   22.1590   65.0620 N.pl3 330  ARG330      0.1354
    158  NH2       32.7570   21.6450   63.8570 N.pl3 330  ARG330      0.1354
@<TRIPOS>BOND
     1    22    21    2
     2    19    20    1
     3    21    20    1
     4    47    48    1
     5    20    23    1
     6    43    42    2
     7    34    33    2
     8    50    49    2
     9    48    49    1
    10    48    51    1
    11    23    24    1
    12    42    41    1
    13    31    32    1
    14    33    32    1
    15    33    40   am
    16    51    52    1
    17    26    24   ar
    18    26    28   ar
    19    41    40    1
    20    41    44    1
    21    24    25   ar
    22    32    35    1
    23    45    44    1
    24    28    29   ar
    25    25    27   ar
    26    35    36    1
    27    44    46    1
    28    52    53    1
    29    56    57    1
    30    59    58    2
    31    29    27   ar
    32    29    30    1
    33    53    55   am
    34    53    54    2
    35    36    37    1
    36    65    66    1
    37    58    57    1
    38    57    60    1
    39    37    38   ar
    40    37    39   ar
    41    68    67    2
    42    60    61    1
    43    69    66    1
    44    69    70    1
    45    71    70    2
    46    66    67    1
    47    70    72   am
    48    67    73   am
    49   110   108   ar
    50   110   111   ar
    51   108   107   ar
    52    12    11    1
    53    12    13    2
    54    61    62    1
    55    64    62   ar
    56   111   109   ar
    57    11    14    1
    58    11    10    1
    59    62    63   ar
    60    14    15    1
    61    15    16    1
    62    73    74    1
    63   119   118   ar
    64    76    75    2
    65   107   109   ar
    66   107   106    1
    67    74    75    1
    68   120   118   ar
    69    17    16   ar
    70    16    18   ar
    71   118   117    1
    72   106   103    1
    73   103   104    1
    74   103   102    1
    75   117   116    1
    76   105   104    2
    77   104   112   am
    78   137   136    1
    79   138   136    1
    80   136   135    2
    81   116   113    1
    82    77    78    1
    83   135   134    1
    84   112   113    1
    85     9     7   ar
    86     3     4    2
    87     3     2    1
    88   134   133    1
    89    80    79    2
    90     5     2    1
    91     5     6    1
    92     2     1    1
    93   113   114    1
    94     7     6    1
    95     7     8   ar
    96    78    79    1
    97    97    96    1
    98    97    98    1
    99    89    87   ar
   100    89    90   ar
   101   133   132    1
   102   158   156    1
   103    96    95    1
   104   114   115    2
   105   114   121   am
   106   132   129    1
   107    92    95    1
   108    92    91    1
   109    92    93    1
   110    87    86   ar
   111    94    93    2
   112    90    88   ar
   113   127   125    1
   114   121   122    1
   115   100    99    1
   116    98    99    2
   117   156   157    1
   118   156   155    2
   119    86    88   ar
   120    86    85    1
   121   126   125    1
   122    99   101    1
   123    81    82    1
   124   125   122    1
   125   129   130    1
   126   129   128    1
   127   147   145   ar
   128   131   130    2
   129    85    82    1
   130   122   123    1
   131   155   154    1
   132    84    83    2
   133    82    83    1
   134   124   123    2
   135   145   146   ar
   136   145   144    1
   137   154   153    1
   138   151   150    2
   139   144   143    1
   140   152   153    1
   141   152   149    1
   142   149   150    1
   143   149   148    1
   144   143   140    1
   145   140   141    1
   146   140   139    1
   147   141   142    2
