@<TRIPOS>MOLECULE
tmp/2d3cJ00.pdb
 177 164 0 0 0
SMALL
GASTEIGER

@<TRIPOS>ATOM
      1  N         62.6380   22.6330   -5.4150 N.3   127  GLU127     -0.1245
      2  CA        62.2480   22.6750   -4.0330 C.3   127  GLU127      0.1567
      3  C         61.0620   21.7970   -3.8460 C.2   127  GLU127      0.2260
      4  O         59.9400   22.2380   -4.1160 O.2   127  GLU127     -0.2867
      5  CB        61.7600   24.0720   -3.6510 C.3   127  GLU127      0.0388
      6  CG        62.7940   25.1970   -3.6390 C.3   127  GLU127      0.1160
      7  CD        62.2190   26.5480   -3.2280 C.2   127  GLU127      0.3649
      8  OE1       62.1400   27.4510   -4.0680 O.co2 127  GLU127     -0.2457
      9  OE2       61.8420   26.7180   -2.0660 O.co2 127  GLU127     -0.2457
     10  N         58.2890   20.2350   -1.8510 N.3   129  GLU129     -0.1245
     11  CA        57.5080   20.3240   -0.6420 C.3   129  GLU129      0.1567
     12  C         56.6150   19.1220   -0.6410 C.2   129  GLU129      0.2260
     13  O         56.2610   18.6720   -1.7040 O.2   129  GLU129     -0.2867
     14  CB        56.6650   21.6020   -0.6580 C.3   129  GLU129      0.0388
     15  CG        57.5250   22.9370   -0.6140 C.3   129  GLU129      0.1160
     16  CD        56.7120   24.2710   -0.6580 C.2   129  GLU129      0.3649
     17  OE1       57.1660   25.2990   -0.0870 O.co2 129  GLU129     -0.2457
     18  OE2       55.6300   24.2700   -1.2580 O.co2 129  GLU129     -0.2457
     19  N         56.5210   27.2360   10.3930 N.3   156  TYR156     -0.1241
     20  CA        57.6120   27.4790    9.4480 C.3   156  TYR156      0.1605
     21  C         58.9940   27.5240   10.1130 C.2   156  TYR156      0.2264
     22  O         59.2450   28.3820   10.9330 O.2   156  TYR156     -0.2867
     23  CB        57.3610   28.7810    8.6750 C.3   156  TYR156      0.0534
     24  CG        58.4710   29.1890    7.7180 C.ar  156  TYR156     -0.0201
     25  CD1       58.5420   28.6530    6.4490 C.ar  156  TYR156     -0.0009
     26  CD2       59.4320   30.1070    8.0820 C.ar  156  TYR156     -0.0009
     27  CE1       59.5200   29.0060    5.5700 C.ar  156  TYR156      0.0417
     28  CE2       60.4280   30.4520    7.2060 C.ar  156  TYR156      0.0417
     29  CZ        60.4490   29.8910    5.9450 C.ar  156  TYR156      0.1957
     30  OH        61.3880   30.1940    5.0160 O.3   156  TYR156     -0.2866
     31  N         63.9390   22.2520    5.1650 N.3   188  ASN188     -0.1240
     32  CA        63.3180   23.1750    6.1120 C.3   188  ASN188      0.1653
     33  C         61.9130   22.7740    6.4550 C.2   188  ASN188      0.2266
     34  O         61.2600   22.1350    5.6260 O.2   188  ASN188     -0.2867
     35  CB        63.2840   24.5660    5.5450 C.3   188  ASN188      0.1155
     36  CG        62.4630   24.6570    4.2460 C.2   188  ASN188      0.2627
     37  OD1       61.2350   24.8460    4.2650 O.2   188  ASN188     -0.2716
     38  ND2       63.1410   24.5590    3.1110 N.am  188  ASN188     -0.0877
     39  N         58.0820   23.5240    6.6940 N.3   190  GLU190     -0.1231
     40  CA        57.2580   24.5030    5.9720 C.3   190  GLU190      0.1699
     41  C         56.1010   25.0600    6.7820 C.2   190  GLU190      0.2592
     42  O         55.9550   24.7480    7.9640 O.2   190  GLU190     -0.2718
     43  CB        56.7690   23.9710    4.6600 C.3   190  GLU190      0.0402
     44  CG        57.6270   24.4000    3.5290 C.3   190  GLU190      0.1161
     45  CD        57.3010   25.7470    3.0080 C.2   190  GLU190      0.3649
     46  OE1       56.1160   26.1690    3.0590 O.co2 190  GLU190     -0.2457
     47  OE2       58.2560   26.3600    2.5140 O.co2 190  GLU190     -0.2457
     48  N         55.2820   25.8800    6.1330 N.am  191  VAL191     -0.1980
     49  CA        54.2830   26.7100    6.7990 C.3   191  VAL191      0.1595
     50  C         53.1110   26.0140    7.4840 C.2   191  VAL191      0.2287
     51  O         52.6760   26.4510    8.5430 O.2   191  VAL191     -0.2864
     52  CB        53.7200   27.6620    5.7920 C.3   191  VAL191      0.0276
     53  CG1       52.5370   28.4250    6.3810 C.3   191  VAL191      0.0022
     54  CG2       54.8260   28.5780    5.3420 C.3   191  VAL191      0.0022
     55  N         54.1690   19.8250    7.1280 N.3   195  GLN195     -0.1245
     56  CA        54.6090   19.9630    5.7650 C.3   195  GLN195      0.1566
     57  C         56.0790   20.3220    5.7800 C.2   195  GLN195      0.2260
     58  O         56.5250   21.1670    6.5460 O.2   195  GLN195     -0.2867
     59  CB        53.7820   21.0460    5.1170 C.3   195  GLN195      0.0367
     60  CG        54.0560   21.3330    3.6950 C.3   195  GLN195      0.0905
     61  CD        53.1660   22.4990    3.1810 C.2   195  GLN195      0.2608
     62  OE1       52.0760   22.2570    2.6480 O.2   195  GLN195     -0.2717
     63  NE2       53.6160   23.7780    3.3710 N.am  195  GLN195     -0.0878
     64  N         60.1290   20.2830    3.3440 N.3   197  GLU197     -0.1245
     65  CA        60.7010   20.6240    2.0980 C.3   197  GLU197      0.1567
     66  C         62.1210   20.1570    2.1350 C.2   197  GLU197      0.2260
     67  O         62.7630   20.1960    3.1820 O.2   197  GLU197     -0.2867
     68  CB        60.6570   22.1360    1.9300 C.3   197  GLU197      0.0388
     69  CG        61.2250   22.7040    0.6410 C.3   197  GLU197      0.1160
     70  CD        61.2540   24.2340    0.5980 C.2   197  GLU197      0.3649
     71  OE1       62.1750   24.7940   -0.0170 O.co2 197  GLU197     -0.2457
     72  OE2       60.3640   24.8860    1.1630 O.co2 197  GLU197     -0.2457
     73  N         48.4560   26.2020    3.8840 N.3   242  ASN242     -0.1225
     74  CA        49.2900   26.1890    2.6860 C.3   242  ASN242      0.1785
     75  C         49.1500   24.9670    1.7850 C.2   242  ASN242      0.2597
     76  O         48.9110   23.8410    2.2390 O.2   242  ASN242     -0.2718
     77  CB        50.7630   26.4080    3.0450 C.3   242  ASN242      0.1169
     78  CG        51.1370   27.8560    3.1230 C.2   242  ASN242      0.2627
     79  OD1       50.3570   28.7320    3.5090 O.2   242  ASN242     -0.2716
     80  ND2       52.3560   28.1170    2.7500 N.am  242  ASN242     -0.0877
     81  N         49.2760   25.2220    0.4910 N.am  243  GLY243     -0.1957
     82  CA        49.4130   24.1620   -0.4950 C.3   243  GLY243      0.1869
     83  C         50.8860   23.8000   -0.6200 C.2   243  GLY243      0.2309
     84  O         51.7390   24.3140    0.1260 O.2   243  GLY243     -0.2863
     85  N         54.1230   23.0310   -3.3160 N.3   245  GLY245     -0.1225
     86  CA        54.6810   23.1140   -4.6570 C.3   245  GLY245      0.1811
     87  C         56.0770   22.6050   -4.8370 C.2   245  GLY245      0.2280
     88  O         56.7510   22.1860   -3.9110 O.2   245  GLY245     -0.2866
     89  N         58.8160   24.4310   -6.4690 N.3   247  HIS247     -0.1241
     90  CA        59.4500   25.5750   -7.0980 C.3   247  HIS247      0.1621
     91  C         60.6670   25.1270   -7.9160 C.2   247  HIS247      0.2264
     92  O         61.5040   24.3550   -7.4240 O.2   247  HIS247     -0.2867
     93  CB        59.8710   26.6310   -6.0500 C.3   247  HIS247      0.0745
     94  CG        58.7700   27.0670   -5.1330 C.ar  247  HIS247      0.0817
     95  ND1       59.0080   27.5480   -3.8630 N.ar  247  HIS247     -0.2268
     96  CD2       57.4230   27.0810   -5.2960 C.ar  247  HIS247      0.1154
     97  CE1       57.8570   27.8430   -3.2880 C.ar  247  HIS247      0.1986
     98  NE2       56.8790   27.5640   -4.1340 N.ar  247  HIS247     -0.2212
     99  N         45.5570   24.8170   -5.6060 N.3   289  ARG289     -0.1245
    100  CA        46.6430   25.4670   -4.9100 C.3   289  ARG289      0.1563
    101  C         46.7900   26.9240   -5.2590 C.2   289  ARG289      0.2260
    102  O         46.7830   27.7690   -4.3730 O.2   289  ARG289     -0.2867
    103  CB        47.9790   24.7850   -5.1880 C.3   289  ARG289      0.0307
    104  CG        49.1730   25.5640   -4.5840 C.3   289  ARG289      0.0489
    105  CD        50.4560   24.7770   -4.5730 C.3   289  ARG289      0.2205
    106  NE        51.0370   24.7730   -5.8850 N.pl3 289  ARG289     -0.0865
    107  CZ        52.0800   25.5050   -6.2390 C.cat 289  ARG289      0.5346
    108  NH1       52.6890   26.3210   -5.3760 N.pl3 289  ARG289      0.1354
    109  NH2       52.5140   25.3960   -7.4820 N.pl3 289  ARG289      0.1354
    110  N         48.0900   32.4460    0.2560 N.3   294  HIS294     -0.1226
    111  CA        49.0060   31.4260    0.7890 C.3   294  HIS294      0.1752
    112  C         50.2590   31.3230   -0.0600 C.2   294  HIS294      0.2596
    113  O         50.6890   30.2160   -0.3920 O.2   294  HIS294     -0.2718
    114  CB        48.3350   30.0500    0.8490 C.3   294  HIS294      0.0759
    115  CG        47.0320   30.0290    1.5820 C.ar  294  HIS294      0.0818
    116  ND1       46.9430   30.2540    2.9370 N.ar  294  HIS294     -0.2268
    117  CD2       45.7660   29.7830    1.1590 C.ar  294  HIS294      0.1154
    118  CE1       45.6820   30.1560    3.3230 C.ar  294  HIS294      0.1986
    119  NE2       44.9460   29.8740    2.2620 N.ar  294  HIS294     -0.2212
    120  N         50.8170   32.4720   -0.4390 N.am  295  GLU295     -0.1965
    121  CA        52.1110   32.5390   -1.1410 C.3   295  GLU295      0.1733
    122  C         52.1520   31.9170   -2.5590 C.2   295  GLU295      0.2617
    123  O         53.1670   31.3640   -3.0220 O.2   295  GLU295     -0.2715
    124  CB        53.2250   31.9940   -0.2440 C.3   295  GLU295      0.0429
    125  CG        53.1340   32.5430    1.1800 C.3   295  GLU295      0.1163
    126  CD        54.3230   32.1850    2.0200 C.2   295  GLU295      0.3649
    127  OE1       55.0350   33.1070    2.4420 O.co2 295  GLU295     -0.2457
    128  OE2       54.5550   30.9920    2.2490 O.co2 295  GLU295     -0.2457
    129  N         51.0350   32.0460   -3.2540 N.am  296  THR296     -0.1951
    130  CA        50.9410   31.6220   -4.6370 C.3   296  THR296      0.1897
    131  C         50.4870   32.8050   -5.5070 C.2   296  THR296      0.2313
    132  O         50.0350   33.8570   -4.9890 O.2   296  THR296     -0.2863
    133  CB        49.9210   30.4600   -4.7710 C.3   296  THR296      0.1794
    134  OG1       48.6070   30.9120   -4.3960 O.3   296  THR296     -0.2208
    135  CG2       50.3190   29.2530   -3.8940 C.3   296  THR296      0.0378
    136  N         56.8380   36.7750   -2.9480 N.3   309  ARG309     -0.1245
    137  CA        56.3020   35.4110   -2.8420 C.3   309  ARG309      0.1563
    138  C         54.8440   35.3090   -3.2920 C.2   309  ARG309      0.2260
    139  O         54.3140   34.2010   -3.4100 O.2   309  ARG309     -0.2867
    140  CB        56.5340   34.7910   -1.4580 C.3   309  ARG309      0.0307
    141  CG        57.8820   34.1090   -1.3450 C.3   309  ARG309      0.0489
    142  CD        58.1770   33.6160    0.0200 C.3   309  ARG309      0.2205
    143  NE        59.4950   34.0580    0.4360 N.pl3 309  ARG309     -0.0865
    144  CZ        60.5900   33.3130    0.4300 C.cat 309  ARG309      0.5346
    145  NH1       60.5410   32.0590    0.0430 N.pl3 309  ARG309      0.1354
    146  NH2       61.7430   33.8190    0.8370 N.pl3 309  ARG309      0.1354
    147  N         59.8080   34.6910   -9.1370 N.3   314  ARG314     -0.1245
    148  CA        60.4650   35.5380   -8.1620 C.3   314  ARG314      0.1563
    149  C         61.9410   35.5500   -8.4250 C.2   314  ARG314      0.2260
    150  O         62.5370   34.5190   -8.7180 O.2   314  ARG314     -0.2867
    151  CB        60.2050   35.0140   -6.7570 C.3   314  ARG314      0.0307
    152  CG        61.2270   35.4090   -5.6750 C.3   314  ARG314      0.0489
    153  CD        60.7770   34.9950   -4.2520 C.3   314  ARG314      0.2205
    154  NE        61.8880   34.8380   -3.2960 N.pl3 314  ARG314     -0.0865
    155  CZ        62.4550   33.6690   -2.9580 C.cat 314  ARG314      0.5346
    156  NH1       62.0470   32.5040   -3.4950 N.pl3 314  ARG314      0.1354
    157  NH2       63.4490   33.6520   -2.0700 N.pl3 314  ARG314      0.1354
    158  N         63.2000   31.9490   -9.8130 N.3   328  GLU328     -0.1245
    159  CA        62.3880   30.8670   -9.2390 C.3   328  GLU328      0.1567
    160  C         61.0000   30.8000   -9.9250 C.2   328  GLU328      0.2260
    161  O         60.2250   31.7340   -9.7990 O.2   328  GLU328     -0.2867
    162  CB        62.2470   31.1410   -7.7370 C.3   328  GLU328      0.0388
    163  CG        61.5360   30.0630   -6.9330 C.3   328  GLU328      0.1160
    164  CD        60.9460   30.5630   -5.6260 C.2   328  GLU328      0.3649
    165  OE1       60.8050   31.7710   -5.4740 O.co2 328  GLU328     -0.2457
    166  OE2       60.6060   29.7520   -4.7460 O.co2 328  GLU328     -0.2457
    167  N         57.6280   29.7140   -9.5020 N.3   330  ARG330     -0.1245
    168  CA        56.8430   29.1860   -8.3840 C.3   330  ARG330      0.1563
    169  C         55.5830   28.4900   -8.7810 C.2   330  ARG330      0.2260
    170  O         54.7680   28.1740   -7.9190 O.2   330  ARG330     -0.2867
    171  CB        56.3960   30.2750   -7.4510 C.3   330  ARG330      0.0307
    172  CG        57.4220   31.2550   -7.1410 C.3   330  ARG330      0.0489
    173  CD        57.0050   32.0700   -5.9540 C.3   330  ARG330      0.2205
    174  NE        57.7120   31.5690   -4.8260 N.pl3 330  ARG330     -0.0865
    175  CZ        57.1440   31.4320   -3.6620 C.cat 330  ARG330      0.5346
    176  NH1       55.8730   31.7770   -3.5480 N.pl3 330  ARG330      0.1354
    177  NH2       57.8350   30.9390   -2.6360 N.pl3 330  ARG330      0.1354
@<TRIPOS>BOND
     1   160   161    2
     2   160   159    1
     3   158   159    1
     4   167   168    1
     5   159   162    1
     6   147   148    1
     7   169   168    1
     8   169   170    2
     9   150   149    2
    10   149   148    1
    11   168   171    1
    12   148   151    1
    13    91    92    2
    14    91    90    1
    15   162   163    1
    16   109   107    1
    17   171   172    1
    18   172   173    1
    19    90    89    1
    20    90    93    1
    21   163   164    1
    22   151   152    1
    23   107   106    2
    24   107   108    1
    25    93    94    1
    26   173   174    1
    27   106   105    1
    28   152   153    1
    29   164   165   ar
    30   164   166   ar
    31    99   100    1
    32   131   132    2
    33   131   130    1
    34     1     2    1
    35    96    94   ar
    36    96    98   ar
    37   101   100    1
    38   101   102    2
    39   103   100    1
    40   103   104    1
    41    94    95   ar
    42    87    86    1
    43    87    88    2
    44   174   175    2
    45   133   130    1
    46   133   134    1
    47   133   135    1
    48    86    85    1
    49   130   129    1
    50   104   105    1
    51   153   154    1
    52    98    97   ar
    53     4     3    2
    54     8     7   ar
    55     2     3    1
    56     2     5    1
    57    95    97   ar
    58   175   176    1
    59   175   177    1
    60     5     6    1
    61     6     7    1
    62   156   155    1
    63   139   138    2
    64   154   155    2
    65   138   137    1
    66   129   122   am
    67     7     9   ar
    68   123   122    2
    69   155   157    1
    70   136   137    1
    71   137   140    1
    72   122   121    1
    73    10    11    1
    74    13    12    2
    75   140   141    1
    76   141   142    1
    77    18    16   ar
    78   121   120    1
    79   121   124    1
    80    16    15    1
    81    16    17   ar
    82    14    11    1
    83    14    15    1
    84    11    12    1
    85    83    82    1
    86    83    84    2
    87    82    81    1
    88   120   112   am
    89   113   112    2
    90   124   125    1
    91   112   111    1
    92    71    70   ar
    93   142   143    1
    94   145   144    1
    95   110   111    1
    96   144   143    2
    97   144   146    1
    98    81    75   am
    99    70    69    1
   100    70    72   ar
   101    69    68    1
   102   111   114    1
   103   114   115    1
   104   117   115   ar
   105   117   119   ar
   106   125   126    1
   107   115   116   ar
   108    75    76    2
   109    75    74    1
   110    68    65    1
   111   126   128   ar
   112   126   127   ar
   113    65    66    1
   114    65    64    1
   115    66    67    2
   116   119   118   ar
   117    47    45   ar
   118    62    61    2
   119    74    77    1
   120    74    73    1
   121    80    78   am
   122   116   118   ar
   123    45    46   ar
   124    45    44    1
   125    77    78    1
   126    38    36   am
   127    78    79    2
   128    61    63   am
   129    61    60    1
   130    44    43    1
   131    60    59    1
   132    36    37    2
   133    36    35    1
   134    43    40    1
   135    30    29    1
   136    59    56    1
   137    31    32    1
   138    54    52    1
   139    35    32    1
   140    27    29   ar
   141    27    25   ar
   142    34    33    2
   143    56    57    1
   144    56    55    1
   145    57    58    2
   146    52    53    1
   147    52    49    1
   148    29    28   ar
   149    40    39    1
   150    40    41    1
   151    32    33    1
   152    48    41   am
   153    48    49    1
   154    25    24   ar
   155    41    42    2
   156    49    50    1
   157    28    26   ar
   158    50    51    2
   159    24    26   ar
   160    24    23    1
   161    23    20    1
   162    20    21    1
   163    20    19    1
   164    21    22    2
