@<TRIPOS>MOLECULE
tmp/2d3cJ01.pdb
 166 159 0 0 0
SMALL
GASTEIGER

@<TRIPOS>ATOM
      1  N         70.9550   24.9670  -15.2840 N.3   123  TRP123     -0.1227
      2  CA        71.0560   24.5610  -13.9100 C.3   123  TRP123      0.1737
      3  C         69.6920   24.5710  -13.2640 C.2   123  TRP123      0.2595
      4  O         68.9440   25.5160  -13.4220 O.2   123  TRP123     -0.2718
      5  CB        71.9420   25.5500  -13.2100 C.3   123  TRP123      0.0564
      6  CG        73.3620   25.2200  -13.2930 C.ar  123  TRP123      0.0003
      7  CD1       73.9680   24.3240  -14.1380 C.ar  123  TRP123      0.0946
      8  CD2       74.4000   25.7840  -12.4930 C.ar  123  TRP123      0.0152
      9  NE1       75.3240   24.2860  -13.8990 N.ar  123  TRP123     -0.2442
     10  CE2       75.6210   25.1710  -12.8910 C.ar  123  TRP123      0.0810
     11  CE3       74.4210   26.7510  -11.4690 C.ar  123  TRP123      0.0012
     12  CZ2       76.8620   25.4940  -12.2920 C.ar  123  TRP123      0.0191
     13  CZ3       75.6450   27.0770  -10.8810 C.ar  123  TRP123      0.0001
     14  CH2       76.8530   26.4380  -11.2850 C.ar  123  TRP123      0.0015
     15  N         69.3590   23.5240  -12.5340 N.am  124  TYR124     -0.1962
     16  CA        68.1230   23.5270  -11.8340 C.3   124  TYR124      0.1771
     17  C         68.3290   23.1860  -10.3940 C.2   124  TYR124      0.2620
     18  O         69.0190   22.2230  -10.0570 O.2   124  TYR124     -0.2715
     19  CB        67.1890   22.5180  -12.4330 C.3   124  TYR124      0.0574
     20  CG        66.8940   22.7040  -13.8670 C.ar  124  TYR124     -0.0198
     21  CD1       67.6800   22.1070  -14.8200 C.ar  124  TYR124     -0.0009
     22  CD2       65.7980   23.4300  -14.2750 C.ar  124  TYR124     -0.0009
     23  CE1       67.3940   22.2440  -16.1590 C.ar  124  TYR124      0.0417
     24  CE2       65.4880   23.5740  -15.6020 C.ar  124  TYR124      0.0417
     25  CZ        66.2980   22.9800  -16.5480 C.ar  124  TYR124      0.1957
     26  OH        66.0450   23.0940  -17.9020 O.3   124  TYR124     -0.2866
     27  N         67.7000   23.9910   -9.5520 N.am  125  GLY125     -0.1954
     28  CA        67.4600   23.6490   -8.1370 C.3   125  GLY125      0.1869
     29  C         65.9540   23.5300   -7.9060 C.2   125  GLY125      0.2309
     30  O         65.1920   24.5170   -8.1330 O.2   125  GLY125     -0.2863
     31  N         62.6380   22.6330   -5.4150 N.3   127  GLU127     -0.1245
     32  CA        62.2480   22.6750   -4.0330 C.3   127  GLU127      0.1567
     33  C         61.0620   21.7970   -3.8460 C.2   127  GLU127      0.2260
     34  O         59.9400   22.2380   -4.1160 O.2   127  GLU127     -0.2867
     35  CB        61.7600   24.0720   -3.6510 C.3   127  GLU127      0.0388
     36  CG        62.7940   25.1970   -3.6390 C.3   127  GLU127      0.1160
     37  CD        62.2190   26.5480   -3.2280 C.2   127  GLU127      0.3649
     38  OE1       62.1400   27.4510   -4.0680 O.co2 127  GLU127     -0.2457
     39  OE2       61.8420   26.7180   -2.0660 O.co2 127  GLU127     -0.2457
     40  N         70.5090   20.1470   -1.3830 N.3   185  SER185     -0.1217
     41  CA        71.1430   21.3910   -0.9670 C.3   185  SER185      0.1889
     42  C         70.7030   21.8490    0.3940 C.2   185  SER185      0.2288
     43  O         71.3930   22.6140    1.0400 O.2   185  SER185     -0.2866
     44  CB        71.0170   22.4950   -2.0330 C.3   185  SER185      0.2089
     45  OG        69.7120   22.5760   -2.5580 O.3   185  SER185     -0.2183
     46  N         63.9390   22.2520    5.1650 N.3   188  ASN188     -0.1240
     47  CA        63.3180   23.1750    6.1120 C.3   188  ASN188      0.1653
     48  C         61.9130   22.7740    6.4550 C.2   188  ASN188      0.2266
     49  O         61.2600   22.1350    5.6260 O.2   188  ASN188     -0.2867
     50  CB        63.2840   24.5660    5.5450 C.3   188  ASN188      0.1155
     51  CG        62.4630   24.6570    4.2460 C.2   188  ASN188      0.2627
     52  OD1       61.2350   24.8460    4.2650 O.2   188  ASN188     -0.2716
     53  ND2       63.1410   24.5590    3.1110 N.am  188  ASN188     -0.0877
     54  N         60.1290   20.2830    3.3440 N.3   197  GLU197     -0.1245
     55  CA        60.7010   20.6240    2.0980 C.3   197  GLU197      0.1567
     56  C         62.1210   20.1570    2.1350 C.2   197  GLU197      0.2260
     57  O         62.7630   20.1960    3.1820 O.2   197  GLU197     -0.2867
     58  CB        60.6570   22.1360    1.9300 C.3   197  GLU197      0.0388
     59  CG        61.2250   22.7040    0.6410 C.3   197  GLU197      0.1160
     60  CD        61.2540   24.2340    0.5980 C.2   197  GLU197      0.3649
     61  OE1       62.1750   24.7940   -0.0170 O.co2 197  GLU197     -0.2457
     62  OE2       60.3640   24.8860    1.1630 O.co2 197  GLU197     -0.2457
     63  N         65.5230   20.5330   -0.8970 N.3   199  GLN199     -0.1245
     64  CA        65.9320   21.0830   -2.1910 C.3   199  GLN199      0.1566
     65  C         66.9810   20.1830   -2.8540 C.2   199  GLN199      0.2260
     66  O         67.9730   19.7990   -2.2180 O.2   199  GLN199     -0.2867
     67  CB        66.4960   22.4790   -2.0230 C.3   199  GLN199      0.0367
     68  CG        65.5590   23.4350   -1.3570 C.3   199  GLN199      0.0905
     69  CD        65.9150   23.7500    0.0940 C.2   199  GLN199      0.2608
     70  OE1       65.0250   23.9230    0.9050 O.2   199  GLN199     -0.2717
     71  NE2       67.2100   23.8690    0.4190 N.am  199  GLN199     -0.0878
     72  N         69.6670   20.6060   -5.0530 N.3   201  GLY201     -0.1210
     73  CA        70.5700   21.7540   -5.3550 C.3   201  GLY201      0.1940
     74  C         71.0350   21.8190   -6.8030 C.2   201  GLY201      0.2453
     75  O         70.5740   21.0170   -7.6390 O.2   201  GLY201     -0.2732
     76  N         71.9790   22.7190   -7.1270 N.am  202  PRO202     -0.2728
     77  CA        72.0610   23.0390   -8.5620 C.3   202  PRO202      0.1401
     78  C         72.5540   21.8040   -9.3930 C.2   202  PRO202      0.2269
     79  O         73.7190   21.3740   -9.2710 O.2   202  PRO202     -0.2865
     80  CB        72.9950   24.2480   -8.6100 C.3   202  PRO202      0.0296
     81  CG        73.4830   24.4560   -7.1990 C.3   202  PRO202      0.0237
     82  CD        73.0210   23.3640   -6.3150 C.3   202  PRO202      0.0939
     83  N         63.9950   26.5050   -9.5640 N.3   249  ASN249     -0.1225
     84  CA        64.9740   27.5500   -9.7570 C.3   249  ASN249      0.1785
     85  C         65.7940   27.1680  -10.9380 C.2   249  ASN249      0.2597
     86  O         66.0790   25.9790  -11.1170 O.2   249  ASN249     -0.2718
     87  CB        65.8670   27.6810   -8.5460 C.3   249  ASN249      0.1169
     88  CG        65.0960   28.0110   -7.3230 C.2   249  ASN249      0.2627
     89  OD1       64.8150   29.1840   -7.0310 O.2   249  ASN249     -0.2716
     90  ND2       64.7160   26.9810   -6.5970 N.am  249  ASN249     -0.0877
     91  N         66.1800   28.1810  -11.7170 N.am  250  TYR250     -0.1962
     92  CA        66.7450   28.0130  -13.0440 C.3   250  TYR250      0.1771
     93  C         67.7880   29.0320  -13.3500 C.2   250  TYR250      0.2620
     94  O         67.6530   30.1780  -12.9840 O.2   250  TYR250     -0.2715
     95  CB        65.6460   28.1970  -14.0510 C.3   250  TYR250      0.0574
     96  CG        66.0080   27.9480  -15.4770 C.ar  250  TYR250     -0.0198
     97  CD1       65.7120   28.8740  -16.4300 C.ar  250  TYR250     -0.0009
     98  CD2       66.5940   26.7780  -15.8790 C.ar  250  TYR250     -0.0009
     99  CE1       65.9930   28.6660  -17.7540 C.ar  250  TYR250      0.0417
    100  CE2       66.8900   26.5460  -17.2140 C.ar  250  TYR250      0.0417
    101  CZ        66.5760   27.5060  -18.1560 C.ar  250  TYR250      0.1957
    102  OH        66.8310   27.3210  -19.5030 O.3   250  TYR250     -0.2866
    103  N         68.8330   28.6010  -14.0250 N.am  251  SER251     -0.1950
    104  CA        69.8120   29.5040  -14.5930 C.3   251  SER251      0.1924
    105  C         70.5170   28.8590  -15.8000 C.2   251  SER251      0.2314
    106  O         70.6710   27.6420  -15.8660 O.2   251  SER251     -0.2863
    107  CB        70.7990   30.0310  -13.5290 C.3   251  SER251      0.2116
    108  OG        71.7160   29.0550  -13.1300 O.3   251  SER251     -0.2180
    109  N         74.2370   33.4700  -15.4000 N.3   256  ARG256     -0.1245
    110  CA        75.1090   33.5870  -14.1920 C.3   256  ARG256      0.1563
    111  C         76.4480   34.3220  -14.4080 C.2   256  ARG256      0.2260
    112  O         77.2670   34.4790  -13.4610 O.2   256  ARG256     -0.2867
    113  CB        75.3350   32.2260  -13.5000 C.3   256  ARG256      0.0307
    114  CG        75.1130   31.0070  -14.3850 C.3   256  ARG256      0.0489
    115  CD        75.3560   29.7150  -13.6620 C.3   256  ARG256      0.2205
    116  NE        75.8320   28.7320  -14.6150 N.pl3 256  ARG256     -0.0865
    117  CZ        75.0470   27.9760  -15.3660 C.cat 256  ARG256      0.5346
    118  NH1       73.7250   28.0780  -15.2670 N.pl3 256  ARG256      0.1354
    119  NH2       75.5960   27.1010  -16.2050 N.pl3 256  ARG256      0.1354
    120  N         56.8380   36.7750   -2.9480 N.3   309  ARG309     -0.1245
    121  CA        56.3020   35.4110   -2.8420 C.3   309  ARG309      0.1563
    122  C         54.8440   35.3090   -3.2920 C.2   309  ARG309      0.2260
    123  O         54.3140   34.2010   -3.4100 O.2   309  ARG309     -0.2867
    124  CB        56.5340   34.7910   -1.4580 C.3   309  ARG309      0.0307
    125  CG        57.8820   34.1090   -1.3450 C.3   309  ARG309      0.0489
    126  CD        58.1770   33.6160    0.0200 C.3   309  ARG309      0.2205
    127  NE        59.4950   34.0580    0.4360 N.pl3 309  ARG309     -0.0865
    128  CZ        60.5900   33.3130    0.4300 C.cat 309  ARG309      0.5346
    129  NH1       60.5410   32.0590    0.0430 N.pl3 309  ARG309      0.1354
    130  NH2       61.7430   33.8190    0.8370 N.pl3 309  ARG309      0.1354
    131  N         59.8080   34.6910   -9.1370 N.3   314  ARG314     -0.1245
    132  CA        60.4650   35.5380   -8.1620 C.3   314  ARG314      0.1563
    133  C         61.9410   35.5500   -8.4250 C.2   314  ARG314      0.2260
    134  O         62.5370   34.5190   -8.7180 O.2   314  ARG314     -0.2867
    135  CB        60.2050   35.0140   -6.7570 C.3   314  ARG314      0.0307
    136  CG        61.2270   35.4090   -5.6750 C.3   314  ARG314      0.0489
    137  CD        60.7770   34.9950   -4.2520 C.3   314  ARG314      0.2205
    138  NE        61.8880   34.8380   -3.2960 N.pl3 314  ARG314     -0.0865
    139  CZ        62.4550   33.6690   -2.9580 C.cat 314  ARG314      0.5346
    140  NH1       62.0470   32.5040   -3.4950 N.pl3 314  ARG314      0.1354
    141  NH2       63.4490   33.6520   -2.0700 N.pl3 314  ARG314      0.1354
    142  N         72.2310   35.9250  -11.6960 N.3   325  GLY325     -0.1210
    143  CA        71.9530   34.7520  -10.8740 C.3   325  GLY325      0.1956
    144  C         70.9370   33.8120  -11.5080 C.2   325  GLY325      0.2611
    145  O         71.1900   33.2120  -12.5700 O.2   325  GLY325     -0.2717
    146  N         69.7840   33.6700  -10.8440 N.am  326  TYR326     -0.1976
    147  CA        68.7480   32.6990  -11.2150 C.3   326  TYR326      0.1639
    148  C         67.4050   33.1850  -10.7600 C.2   326  TYR326      0.2290
    149  O         67.3060   33.9950   -9.8680 O.2   326  TYR326     -0.2864
    150  CB        69.0330   31.3690  -10.5510 C.3   326  TYR326      0.0560
    151  CG        68.9500   31.4250   -9.0350 C.ar  326  TYR326     -0.0198
    152  CD1       67.7230   31.3220   -8.3810 C.ar  326  TYR326     -0.0009
    153  CD2       70.1020   31.5820   -8.2480 C.ar  326  TYR326     -0.0009
    154  CE1       67.6340   31.3580   -6.9590 C.ar  326  TYR326      0.0417
    155  CE2       70.0360   31.6210   -6.8200 C.ar  326  TYR326      0.0417
    156  CZ        68.7960   31.5030   -6.1830 C.ar  326  TYR326      0.1957
    157  OH        68.7150   31.5230   -4.7930 O.3   326  TYR326     -0.2866
    158  N         63.2000   31.9490   -9.8130 N.3   328  GLU328     -0.1245
    159  CA        62.3880   30.8670   -9.2390 C.3   328  GLU328      0.1567
    160  C         61.0000   30.8000   -9.9250 C.2   328  GLU328      0.2260
    161  O         60.2250   31.7340   -9.7990 O.2   328  GLU328     -0.2867
    162  CB        62.2470   31.1410   -7.7370 C.3   328  GLU328      0.0388
    163  CG        61.5360   30.0630   -6.9330 C.3   328  GLU328      0.1160
    164  CD        60.9460   30.5630   -5.6260 C.2   328  GLU328      0.3649
    165  OE1       60.8050   31.7710   -5.4740 O.co2 328  GLU328     -0.2457
    166  OE2       60.6060   29.7520   -4.7460 O.co2 328  GLU328     -0.2457
@<TRIPOS>BOND
     1   102   101    1
     2   101    99   ar
     3   101   100   ar
     4    26    25    1
     5    99    97   ar
     6   100    98   ar
     7    25    23   ar
     8    25    24   ar
     9    97    96   ar
    10   119   117    1
    11    23    21   ar
    12    98    96   ar
    13   106   105    2
    14   105   104    1
    15    24    22   ar
    16    96    95    1
    17   109   110    1
    18   117   118    1
    19   117   116    2
    20     1     2    1
    21    21    20   ar
    22   116   115    1
    23   104   103    1
    24   104   107    1
    25   111   110    1
    26   111   112    2
    27   114   115    1
    28   114   113    1
    29    22    20   ar
    30   110   113    1
    31     7     9   ar
    32     7     6   ar
    33    95    92    1
    34   103    93   am
    35     2     3    1
    36     2     5    1
    37     9    10   ar
    38    20    19    1
    39   107   108    1
    40     4     3    2
    41    93    92    1
    42    93    94    2
    43     6     5    1
    44     6     8   ar
    45     3    15   am
    46    92    91    1
    47    10     8   ar
    48    10    12   ar
    49   145   144    2
    50    15    16    1
    51     8    11   ar
    52    19    16    1
    53    12    14   ar
    54    16    17    1
    55    91    85   am
    56   142   143    1
    57   144   143    1
    58   144   146   am
    59    11    13   ar
    60    14    13   ar
    61   147   146    1
    62   147   148    1
    63   147   150    1
    64    86    85    2
    65    85    84    1
    66   148   149    2
    67   150   151    1
    68    17    18    2
    69    17    27   am
    70   160   161    2
    71   160   159    1
    72   158   159    1
    73    84    83    1
    74    84    87    1
    75    27    28    1
    76    78    79    2
    77    78    77    1
    78   159   162    1
    79   131   132    1
    80   151   152   ar
    81   151   153   ar
    82   134   133    2
    83    80    77    1
    84    80    81    1
    85    77    76    1
    86    87    88    1
    87   133   132    1
    88   152   154   ar
    89   153   155   ar
    90   132   135    1
    91    28    29    1
    92    30    29    2
    93   162   163    1
    94    75    74    2
    95    88    89    2
    96    88    90   am
    97    81    82    1
    98    76    74   am
    99    76    82    1
   100   154   156   ar
   101   163   164    1
   102   155   156   ar
   103    74    73    1
   104   135   136    1
   105   156   157    1
   106   136   137    1
   107   164   165   ar
   108   164   166   ar
   109    31    32    1
   110    73    72    1
   111   137   138    1
   112    34    33    2
   113    38    37   ar
   114    32    33    1
   115    32    35    1
   116    35    36    1
   117    36    37    1
   118   140   139    1
   119   123   122    2
   120   138   139    2
   121   122   121    1
   122    37    39   ar
   123   139   141    1
   124   120   121    1
   125    65    66    2
   126    65    64    1
   127   121   124    1
   128    45    44    1
   129    64    67    1
   130    64    63    1
   131    44    41    1
   132    67    68    1
   133   124   125    1
   134    40    41    1
   135    68    69    1
   136   125   126    1
   137    41    42    1
   138    61    60   ar
   139   126   127    1
   140   129   128    1
   141    69    71   am
   142    69    70    2
   143    42    43    2
   144   128   127    2
   145   128   130    1
   146    60    59    1
   147    60    62   ar
   148    59    58    1
   149    58    55    1
   150    55    56    1
   151    55    54    1
   152    56    57    2
   153    53    51   am
   154    51    52    2
   155    51    50    1
   156    46    47    1
   157    50    47    1
   158    49    48    2
   159    47    48    1
