@<TRIPOS>MOLECULE
tmp/2d3lA00.pdb
 222 218 0 0 0
SMALL
GASTEIGER

@<TRIPOS>ATOM
      1  N         23.5930  -37.1520   53.0790 N.3    11  TRP11      -0.1241
      2  CA        22.9920  -37.5550   54.3470 C.3    11  TRP11       0.1605
      3  C         21.6750  -38.3240   54.2660 C.2    11  TRP11       0.2264
      4  O         21.4700  -39.2780   55.0060 O.2    11  TRP11      -0.2867
      5  CB        22.8020  -36.3310   55.2410 C.3    11  TRP11       0.0550
      6  CG        22.5360  -36.6720   56.6760 C.ar   11  TRP11       0.0003
      7  CD1       21.3320  -36.9840   57.2410 C.ar   11  TRP11       0.0946
      8  CD2       23.5080  -36.7680   57.7240 C.ar   11  TRP11       0.0152
      9  NE1       21.4960  -37.2710   58.5740 N.ar   11  TRP11      -0.2442
     10  CE2       22.8210  -37.1480   58.8970 C.ar   11  TRP11       0.0810
     11  CE3       24.8940  -36.5710   57.7830 C.ar   11  TRP11       0.0012
     12  CZ2       23.4730  -37.3380   60.1190 C.ar   11  TRP11       0.0191
     13  CZ3       25.5440  -36.7580   58.9950 C.ar   11  TRP11       0.0001
     14  CH2       24.8320  -37.1390   60.1490 C.ar   11  TRP11       0.0015
     15  N         25.8810  -46.6790   65.1560 N.3    47  ALA47      -0.1245
     16  CA        25.0710  -46.9720   66.3410 C.3    47  ALA47       0.1562
     17  C         23.7850  -47.6950   65.9580 C.2    47  ALA47       0.2260
     18  O         23.0910  -48.2410   66.8120 O.2    47  ALA47      -0.2867
     19  CB        24.7510  -45.6890   67.0920 C.3    47  ALA47       0.0290
     20  N         22.3090  -45.3280   60.4500 N.3    51  ASP51      -0.1225
     21  CA        23.2640  -44.3010   60.8490 C.3    51  ASP51       0.1805
     22  C         24.1250  -44.0220   59.6190 C.2    51  ASP51       0.2597
     23  O         24.5510  -44.9520   58.9340 O.2    51  ASP51      -0.2718
     24  CB        24.1420  -44.8100   61.9940 C.3    51  ASP51       0.1424
     25  CG        25.0400  -43.7280   62.5780 C.2    51  ASP51       0.3668
     26  OD1       25.8870  -43.1630   61.8460 O.co2  51  ASP51      -0.2456
     27  OD2       24.8990  -43.4440   63.7840 O.co2  51  ASP51      -0.2456
     28  N         24.3640  -42.7450   59.3350 N.am   52  VAL52      -0.1980
     29  CA        25.1800  -42.3510   58.1900 C.3    52  VAL52       0.1595
     30  C         26.6040  -42.9060   58.3300 C.2    52  VAL52       0.2287
     31  O         27.3230  -43.0500   57.3410 O.2    52  VAL52      -0.2864
     32  CB        25.2080  -40.7980   58.0540 C.3    52  VAL52       0.0276
     33  CG1       26.1890  -40.3690   56.9850 C.3    52  VAL52       0.0022
     34  CG2       23.8070  -40.2900   57.6980 C.3    52  VAL52       0.0022
     35  N         28.7850  -41.7500   61.0760 N.3    54  TYR54      -0.1227
     36  CA        29.5260  -40.9230   62.0200 C.3    54  TYR54       0.1736
     37  C         29.2470  -41.2670   63.4730 C.2    54  TYR54       0.2596
     38  O         29.9600  -40.8310   64.3800 O.2    54  TYR54      -0.2718
     39  CB        29.2740  -39.4460   61.7140 C.3    54  TYR54       0.0548
     40  CG        29.7800  -39.0830   60.3310 C.ar   54  TYR54      -0.0200
     41  CD1       31.1390  -39.1840   60.0200 C.ar   54  TYR54      -0.0009
     42  CD2       28.8970  -38.7220   59.3120 C.ar   54  TYR54      -0.0009
     43  CE1       31.6010  -38.9410   58.7250 C.ar   54  TYR54       0.0417
     44  CE2       29.3510  -38.4820   58.0150 C.ar   54  TYR54       0.0417
     45  CZ        30.7010  -38.5970   57.7310 C.ar   54  TYR54       0.1957
     46  OH        31.1470  -38.3940   56.4470 O.3    54  TYR54      -0.2866
     47  N         28.2030  -42.0550   63.6940 N.am   55  GLY55      -0.1957
     48  CA        27.9130  -42.5140   65.0360 C.3    55  GLY55       0.1869
     49  C         28.7070  -43.8120   65.0700 C.2    55  GLY55       0.2309
     50  O         28.1570  -44.8990   65.2480 O.2    55  GLY55      -0.2863
     51  N         24.1010  -54.3370   66.4680 N.3    68  LYS68      -0.1245
     52  CA        23.2300  -53.1690   66.4500 C.3    68  LYS68       0.1561
     53  C         21.9370  -53.4780   65.7350 C.2    68  LYS68       0.2260
     54  O         21.2450  -52.5680   65.2750 O.2    68  LYS68      -0.2867
     55  CB        23.9210  -51.9660   65.7900 C.3    68  LYS68       0.0271
     56  CG        25.0380  -51.3840   66.6370 C.3    68  LYS68       0.0035
     57  CD        24.5260  -51.0660   68.0380 C.3    68  LYS68       0.0206
     58  CE        25.6700  -50.8210   69.0040 C.3    68  LYS68       0.1093
     59  NZ        25.1880  -50.6770   70.4080 N.3    68  LYS68      -0.1314
     60  N         33.3320  -42.6100   69.7950 N.3   104  LYS104     -0.1231
     61  CA        32.6830  -43.9000   69.5880 C.3   104  LYS104      0.1693
     62  C         31.2900  -43.7740   70.1840 C.2   104  LYS104      0.2593
     63  O         31.1390  -43.4310   71.3540 O.2   104  LYS104     -0.2718
     64  CB        33.4220  -45.0600   70.2850 C.3   104  LYS104      0.0285
     65  CG        34.7420  -45.4740   69.6740 C.3   104  LYS104      0.0035
     66  CD        35.2080  -46.8250   70.2510 C.3   104  LYS104      0.0206
     67  CE        34.5860  -48.0140   69.5260 C.3   104  LYS104      0.1093
     68  NZ        35.1750  -48.1480   68.1640 N.3   104  LYS104     -0.1314
     69  N         30.2790  -44.0510   69.3720 N.am  105  GLY105     -0.1942
     70  CA        28.9110  -43.9850   69.8450 C.3   105  GLY105      0.2014
     71  C         28.2910  -45.3650   69.8670 C.2   105  GLY105      0.2639
     72  O         28.8800  -46.3260   69.3670 O.2   105  GLY105     -0.2714
     73  N         27.1070  -45.4680   70.4520 N.am  106  GLY106     -0.1939
     74  CA        26.4260  -46.7460   70.5010 C.3   106  GLY106      0.2014
     75  C         27.1330  -47.7920   71.3420 C.2   106  GLY106      0.2639
     76  O         27.1740  -48.9600   70.9650 O.2   106  GLY106     -0.2714
     77  N         27.7040  -47.3840   72.4740 N.am  107  ALA107     -0.1963
     78  CA        28.3970  -48.3160   73.3560 C.3   107  ALA107      0.1728
     79  C         27.5040  -49.5160   73.6750 C.2   107  ALA107      0.2616
     80  O         26.2800  -49.4270   73.6140 O.2   107  ALA107     -0.2715
     81  CB        28.7990  -47.6090   74.6370 C.3   107  ALA107      0.0334
     82  N         28.1180  -50.6420   74.0120 N.am  108  ASP108     -0.1971
     83  CA        27.3590  -51.8490   74.3300 C.3   108  ASP108      0.1709
     84  C         26.6960  -51.7750   75.6970 C.2   108  ASP108      0.2293
     85  O         25.6410  -52.3650   75.9100 O.2   108  ASP108     -0.2864
     86  CB        28.2650  -53.0870   74.2770 C.3   108  ASP108      0.1436
     87  CG        28.7320  -53.4100   72.8690 C.2   108  ASP108      0.3671
     88  OD1       27.8750  -53.5840   71.9820 O.co2 108  ASP108     -0.2456
     89  OD2       29.9570  -53.5000   72.6470 O.co2 108  ASP108     -0.2456
     90  N         28.1740  -44.2120   78.7040 N.3   136  TRP136     -0.1241
     91  CA        28.2040  -45.2560   77.6840 C.3   136  TRP136      0.1605
     92  C         29.6150  -45.3280   77.1230 C.2   136  TRP136      0.2264
     93  O         29.8990  -44.7960   76.0510 O.2   136  TRP136     -0.2867
     94  CB        27.2240  -44.9380   76.5540 C.3   136  TRP136      0.0550
     95  CG        25.8180  -44.8400   77.0160 C.ar  136  TRP136      0.0003
     96  CD1       25.1860  -43.7300   77.4860 C.ar  136  TRP136      0.0946
     97  CD2       24.8770  -45.9130   77.1140 C.ar  136  TRP136      0.0152
     98  NE1       23.9030  -44.0430   77.8760 N.ar  136  TRP136     -0.2442
     99  CE2       23.6890  -45.3780   77.6590 C.ar  136  TRP136      0.0810
    100  CE3       24.9230  -47.2780   76.7970 C.ar  136  TRP136      0.0012
    101  CZ2       22.5570  -46.1570   77.8970 C.ar  136  TRP136      0.0191
    102  CZ3       23.7950  -48.0570   77.0330 C.ar  136  TRP136      0.0001
    103  CH2       22.6260  -47.4900   77.5790 C.ar  136  TRP136      0.0015
    104  N         32.0710  -37.6220   78.1130 N.3   161  VAL161     -0.1231
    105  CA        30.8150  -37.8130   77.3900 C.3   161  VAL161      0.1692
    106  C         29.8980  -36.6380   77.6910 C.2   161  VAL161      0.2592
    107  O         30.2240  -35.7820   78.5150 O.2   161  VAL161     -0.2718
    108  CB        30.0870  -39.1180   77.8110 C.3   161  VAL161      0.0266
    109  CG1       30.8260  -40.3350   77.2750 C.3   161  VAL161      0.0020
    110  CG2       29.9810  -39.1900   79.3270 C.3   161  VAL161      0.0020
    111  N         28.7540  -36.5980   77.0180 N.am  162  ASP162     -0.1960
    112  CA        27.7840  -35.5290   77.2250 C.3   162  ASP162      0.1840
    113  C         26.4770  -36.0810   77.8010 C.2   162  ASP162      0.2622
    114  O         25.4660  -35.3800   77.8260 O.2   162  ASP162     -0.2715
    115  CB        27.4820  -34.8310   75.9020 C.3   162  ASP162      0.1450
    116  CG        26.9050  -35.7720   74.8780 C.2   162  ASP162      0.3671
    117  OD1       26.5720  -36.9190   75.2500 O.co2 162  ASP162     -0.2456
    118  OD2       26.7800  -35.3690   73.7040 O.co2 162  ASP162     -0.2456
    119  N         26.4970  -37.3250   78.2730 N.am  163  TRP163     -0.1974
    120  CA        25.2810  -37.9220   78.8040 C.3   163  TRP163      0.1640
    121  C         25.4700  -38.8360   80.0120 C.2   163  TRP163      0.2290
    122  O         26.2130  -39.8210   79.9610 O.2   163  TRP163     -0.2864
    123  CB        24.5700  -38.6890   77.6870 C.3   163  TRP163      0.0576
    124  CG        23.2240  -39.2260   78.0700 C.ar  163  TRP163      0.0006
    125  CD1       22.9110  -40.5230   78.3910 C.ar  163  TRP163      0.0946
    126  CD2       22.0050  -38.4810   78.1760 C.ar  163  TRP163      0.0152
    127  NE1       21.5760  -40.6270   78.6850 N.ar  163  TRP163     -0.2442
    128  CE2       20.9940  -39.3900   78.5640 C.ar  163  TRP163      0.0810
    129  CE3       21.6680  -37.1340   77.9830 C.ar  163  TRP163      0.0012
    130  CZ2       19.6630  -38.9910   78.7650 C.ar  163  TRP163      0.0191
    131  CZ3       20.3380  -36.7370   78.1830 C.ar  163  TRP163      0.0001
    132  CH2       19.3570  -37.6670   78.5710 C.ar  163  TRP163      0.0015
    133  N         23.5850  -41.3450   82.1100 N.3   165  GLN165     -0.1245
    134  CA        22.4160  -42.2160   82.0630 C.3   165  GLN165      0.1566
    135  C         21.6370  -42.3240   83.3700 C.2   165  GLN165      0.2260
    136  O         20.4500  -42.6550   83.3560 O.2   165  GLN165     -0.2867
    137  CB        22.8390  -43.6160   81.5980 C.3   165  GLN165      0.0367
    138  CG        21.6960  -44.6040   81.3490 C.3   165  GLN165      0.0905
    139  CD        20.7290  -44.1370   80.2730 C.2   165  GLN165      0.2608
    140  OE1       21.1370  -43.6230   79.2300 O.2   165  GLN165     -0.2717
    141  NE2       19.4410  -44.3280   80.5150 N.am  165  GLN165     -0.0878
    142  N         33.1610  -33.2120   71.4880 N.3   197  LEU197     -0.1231
    143  CA        32.1890  -32.8690   70.4530 C.3   197  LEU197      0.1693
    144  C         30.8560  -33.5840   70.6870 C.2   197  LEU197      0.2592
    145  O         29.8370  -32.9440   70.9390 O.2   197  LEU197     -0.2718
    146  CB        32.7120  -33.2250   69.0540 C.3   197  LEU197      0.0284
    147  CG        31.6770  -33.0090   67.9380 C.3   197  LEU197      0.0019
    148  CD1       31.3190  -31.5190   67.8660 C.3   197  LEU197      0.0001
    149  CD2       32.2170  -33.4980   66.5930 C.3   197  LEU197      0.0001
    150  N         30.8820  -34.9110   70.6150 N.am  198  MET198     -0.1965
    151  CA        29.6830  -35.7310   70.7900 C.3   198  MET198      0.1736
    152  C         30.0680  -37.1480   71.1980 C.2   198  MET198      0.2616
    153  O         31.2340  -37.5330   71.1040 O.2   198  MET198     -0.2715
    154  CB        28.9020  -35.7910   69.4750 C.3   198  MET198      0.0427
    155  CG        29.7630  -36.2670   68.3090 C.3   198  MET198      0.0599
    156  SD        29.0110  -36.1470   66.6630 S.3   198  MET198     -0.1393
    157  CE        28.8600  -37.7970   66.2380 C.3   198  MET198      0.0692
    158  N         29.0760  -37.9190   71.6390 N.am  199  TYR199     -0.1960
    159  CA        29.2920  -39.3000   72.0580 C.3   199  TYR199      0.1771
    160  C         30.4230  -39.4500   73.0830 C.2   199  TYR199      0.2619
    161  O         30.6820  -38.5380   73.8680 O.2   199  TYR199     -0.2715
    162  CB        29.5670  -40.1670   70.8270 C.3   199  TYR199      0.0574
    163  CG        28.3460  -40.3620   69.9460 C.ar  199  TYR199     -0.0198
    164  CD1       27.1920  -40.9650   70.4510 C.ar  199  TYR199     -0.0009
    165  CD2       28.3430  -39.9500   68.6120 C.ar  199  TYR199     -0.0009
    166  CE1       26.0640  -41.1570   69.6480 C.ar  199  TYR199      0.0417
    167  CE2       27.2170  -40.1350   67.7980 C.ar  199  TYR199      0.0417
    168  CZ        26.0850  -40.7400   68.3260 C.ar  199  TYR199      0.1957
    169  OH        24.9770  -40.9330   67.5370 O.3   199  TYR199     -0.2866
    170  N         31.0790  -40.6080   73.0930 N.am  200  ALA200     -0.1977
    171  CA        32.1770  -40.8400   74.0270 C.3   200  ALA200      0.1597
    172  C         33.4680  -40.3280   73.3810 C.2   200  ALA200      0.2287
    173  O         33.9480  -40.8990   72.4030 O.2   200  ALA200     -0.2864
    174  CB        32.2900  -42.3290   74.3470 C.3   200  ALA200      0.0319
    175  N         37.6310  -37.2200   59.5410 N.3   232  ASP232     -0.1239
    176  CA        36.5150  -36.5600   60.2120 C.3   232  ASP232      0.1674
    177  C         36.8390  -35.7510   61.4770 C.2   232  ASP232      0.2266
    178  O         37.5870  -36.1990   62.3490 O.2   232  ASP232     -0.2867
    179  CB        35.4770  -37.6300   60.5650 C.3   232  ASP232      0.1410
    180  CG        34.2120  -37.0600   61.1640 C.2   232  ASP232      0.3668
    181  OD1       33.4290  -36.4310   60.4210 O.co2 232  ASP232     -0.2456
    182  OD2       33.9950  -37.2480   62.3760 O.co2 232  ASP232     -0.2456
    183  N         27.6830  -33.2300   53.0460 N.3   328  HIS328     -0.1226
    184  CA        26.5950  -33.7440   53.8710 C.3   328  HIS328      0.1752
    185  C         26.2070  -32.8710   55.0610 C.2   328  HIS328      0.2596
    186  O         25.1120  -33.0220   55.5980 O.2   328  HIS328     -0.2718
    187  CB        26.9240  -35.1570   54.3630 C.3   328  HIS328      0.0759
    188  CG        28.2460  -35.2590   55.0480 C.ar  328  HIS328      0.0818
    189  ND1       29.4400  -35.0900   54.3830 N.ar  328  HIS328     -0.2268
    190  CD2       28.5650  -35.4890   56.3440 C.ar  328  HIS328      0.1154
    191  CE1       30.4390  -35.2110   55.2390 C.ar  328  HIS328      0.1986
    192  NE2       29.9340  -35.4530   56.4360 N.ar  328  HIS328     -0.2212
    193  N         27.0880  -31.9680   55.4780 N.am  329  ASP329     -0.1974
    194  CA        26.7790  -31.1020   56.6120 C.3   329  ASP329      0.1709
    195  C         26.1500  -29.7860   56.1880 C.2   329  ASP329      0.2293
    196  O         25.3530  -29.2020   56.9280 O.2   329  ASP329     -0.2864
    197  CB        28.0370  -30.7960   57.4350 C.3   329  ASP329      0.1436
    198  CG        28.5520  -32.0020   58.1790 C.2   329  ASP329      0.3671
    199  OD1       27.7250  -32.7580   58.7320 O.co2 329  ASP329     -0.2456
    200  OD2       29.7860  -32.1840   58.2180 O.co2 329  ASP329     -0.2456
    201  N         20.6230  -30.1670   57.6050 N.3   334  GLU334     -0.1231
    202  CA        21.7430  -30.5490   58.4450 C.3   334  GLU334      0.1699
    203  C         22.2460  -29.4580   59.3910 C.2   334  GLU334      0.2592
    204  O         21.9330  -28.2750   59.2250 O.2   334  GLU334     -0.2718
    205  CB        22.8720  -31.0940   57.5770 C.3   334  GLU334      0.0402
    206  CG        22.5300  -32.4590   57.0140 C.3   334  GLU334      0.1161
    207  CD        21.9200  -33.3600   58.0740 C.2   334  GLU334      0.3649
    208  OE1       20.6910  -33.5770   58.0490 O.co2 334  GLU334     -0.2457
    209  OE2       22.6660  -33.8340   58.9540 O.co2 334  GLU334     -0.2457
    210  N         23.0120  -29.8860   60.3950 N.am  335  ALA335     -0.1966
    211  CA        23.5570  -29.0150   61.4370 C.3   335  ALA335      0.1728
    212  C         24.2090  -27.7430   60.9290 C.2   335  ALA335      0.2616
    213  O         23.9630  -26.6540   61.4490 O.2   335  ALA335     -0.2715
    214  CB        24.5500  -29.7940   62.2850 C.3   335  ALA335      0.0334
    215  N         25.0460  -27.8860   59.9110 N.am  336  LEU336     -0.1977
    216  CA        25.7470  -26.7480   59.3410 C.3   336  LEU336      0.1596
    217  C         25.1550  -26.3130   58.0020 C.2   336  LEU336      0.2287
    218  O         25.8800  -25.9080   57.0930 O.2   336  LEU336     -0.2864
    219  CB        27.2280  -27.1050   59.1880 C.3   336  LEU336      0.0297
    220  CG        27.9500  -27.3290   60.5210 C.3   336  LEU336      0.0022
    221  CD1       29.2510  -28.0780   60.2980 C.3   336  LEU336      0.0001
    222  CD2       28.1980  -25.9800   61.1920 C.3   336  LEU336      0.0001
@<TRIPOS>BOND
     1   183   184    1
     2     1     2    1
     3   184   187    1
     4   184   185    1
     5     3     2    1
     6     3     4    2
     7     2     5    1
     8   187   188    1
     9   189   188   ar
    10   189   191   ar
    11   188   190   ar
    12   185   193   am
    13   185   186    2
    14   191   192   ar
    15     5     6    1
    16   193   194    1
    17   195   194    1
    18   195   196    2
    19   190   192   ar
    20    46    45    1
    21   194   197    1
    22     6     7   ar
    23     6     8   ar
    24    33    32    1
    25   206   205    1
    26   206   207    1
    27   218   217    2
    28     7     9   ar
    29    31    30    2
    30   197   198    1
    31   205   202    1
    32   201   202    1
    33    34    32    1
    34     8    11   ar
    35     8    10   ar
    36    45    44   ar
    37    45    43   ar
    38    11    13   ar
    39   217   216    1
    40    44    42   ar
    41   208   207   ar
    42    32    29    1
    43   207   209   ar
    44   198   200   ar
    45   198   199   ar
    46    29    30    1
    47    29    28    1
    48   202   203    1
    49     9    10   ar
    50    43    41   ar
    51    10    12   ar
    52    23    22    2
    53    13    14   ar
    54   219   216    1
    55   219   220    1
    56   204   203    2
    57    42    40   ar
    58    28    22   am
    59   216   215    1
    60   203   210   am
    61   175   176    1
    62    22    21    1
    63   215   212   am
    64    41    40   ar
    65    12    14   ar
    66   176   179    1
    67   176   177    1
    68   221   220    1
    69    40    39    1
    70   210   211    1
    71   181   180   ar
    72    20    21    1
    73   220   222    1
    74   179   180    1
    75    21    24    1
    76   212   211    1
    77   212   213    2
    78    35    36    1
    79   180   182   ar
    80   211   214    1
    81   177   178    2
    82    39    36    1
    83    26    25   ar
    84    24    25    1
    85    36    37    1
    86    25    27   ar
    87    37    47   am
    88    37    38    2
    89    47    48    1
    90    48    49    1
    91    49    50    2
    92    15    16    1
    93    54    53    2
    94    53    52    1
    95    55    52    1
    96    55    56    1
    97    17    16    1
    98    17    18    2
    99   157   156    1
   100    16    19    1
   101    52    51    1
   102   149   147    1
   103    56    57    1
   104   156   155    1
   105   169   168    1
   106   167   168   ar
   107   167   165   ar
   108   148   147    1
   109   147   146    1
   110    57    58    1
   111    68    67    1
   112   155   154    1
   113   168   166   ar
   114   165   163   ar
   115    58    59    1
   116   146   143    1
   117    72    71    2
   118    69    70    1
   119    69    62   am
   120   154   151    1
   121    67    66    1
   122    61    60    1
   123    61    62    1
   124    61    64    1
   125   166   164   ar
   126    65    66    1
   127    65    64    1
   128    70    71    1
   129    71    73   am
   130   163   164   ar
   131   163   162    1
   132    62    63    2
   133    73    74    1
   134   143   144    1
   135   143   142    1
   136    74    75    1
   137   150   144   am
   138   150   151    1
   139   144   145    2
   140   151   152    1
   141   162   159    1
   142    76    75    2
   143   153   152    2
   144   152   158   am
   145    75    77   am
   146   158   159    1
   147    88    87   ar
   148   159   160    1
   149   173   172    2
   150    77    78    1
   151    89    87   ar
   152    87    86    1
   153   160   170   am
   154   160   161    2
   155   170   171    1
   156    78    79    1
   157    78    81    1
   158   172   171    1
   159    80    79    2
   160    79    82   am
   161   118   116   ar
   162    82    83    1
   163   171   174    1
   164    86    83    1
   165    83    84    1
   166   116   117   ar
   167   116   115    1
   168    84    85    2
   169   115   112    1
   170    93    92    2
   171    94    95    1
   172    94    91    1
   173   100   102   ar
   174   100    97   ar
   175    95    97   ar
   176    95    96   ar
   177   111   112    1
   178   111   106   am
   179   102   103   ar
   180    97    99   ar
   181    92    91    1
   182   112   113    1
   183   109   108    1
   184   105   106    1
   185   105   108    1
   186   105   104    1
   187    96    98   ar
   188   103   101   ar
   189    99    98   ar
   190    99   101   ar
   191    91    90    1
   192   123   124    1
   193   123   120    1
   194   106   107    2
   195   113   114    2
   196   113   119   am
   197   108   110    1
   198   129   126   ar
   199   129   131   ar
   200   124   126   ar
   201   124   125   ar
   202   126   128   ar
   203   131   132   ar
   204   119   120    1
   205   125   127   ar
   206   128   127   ar
   207   128   130   ar
   208   132   130   ar
   209   120   121    1
   210   140   139    2
   211   122   121    2
   212   139   141   am
   213   139   138    1
   214   138   137    1
   215   137   134    1
   216   134   133    1
   217   134   135    1
   218   136   135    2
