@<TRIPOS>MOLECULE
tmp/2d3mA00.pdb
 221 213 0 0 0
SMALL
GASTEIGER

@<TRIPOS>ATOM
      1  N          7.6490   -4.1260   23.9810 N.3    68  LYS68      -0.1245
      2  CA         9.0210   -3.7120   23.6910 C.3    68  LYS68       0.1561
      3  C          9.0670   -2.1970   23.4700 C.2    68  LYS68       0.2260
      4  O          9.9910   -1.5300   23.9330 O.2    68  LYS68      -0.2867
      5  CB         9.5240   -4.4450   22.4450 C.3    68  LYS68       0.0271
      6  CG        11.0190   -4.6960   22.3950 C.3    68  LYS68       0.0035
      7  CD        11.3630   -5.5900   21.2130 C.3    68  LYS68       0.0206
      8  CE        12.8200   -6.0170   21.2400 C.3    68  LYS68       0.1093
      9  NZ        13.1590   -6.9140   20.0980 N.3    68  LYS68      -0.1314
     10  N          8.4710   -0.0530   26.7110 N.3    71  HIS71      -0.1226
     11  CA         9.7110   -0.0030   27.4840 C.3    71  HIS71       0.1752
     12  C         10.6010    1.1200   26.9400 C.2    71  HIS71       0.2595
     13  O         11.2060    1.8590   27.7160 O.2    71  HIS71      -0.2718
     14  CB        10.4430   -1.3540   27.4060 C.3    71  HIS71       0.0759
     15  CG        11.6800   -1.4290   28.2510 C.ar   71  HIS71       0.0818
     16  ND1       11.6560   -1.2900   29.6220 N.ar   71  HIS71      -0.2268
     17  CD2       12.9790   -1.6110   27.9140 C.ar   71  HIS71       0.1154
     18  CE1       12.8870   -1.3810   30.0930 C.ar   71  HIS71       0.1986
     19  NE2       13.7090   -1.5760   29.0780 N.ar   71  HIS71      -0.2212
     20  N         10.6350    1.2560   25.6100 N.am   72  ILE72      -0.1980
     21  CA        11.4280    2.2880   24.9280 C.3    72  ILE72       0.1595
     22  C         10.8910    3.6820   25.2750 C.2    72  ILE72       0.2287
     23  O         11.6750    4.5780   25.5900 O.2    72  ILE72      -0.2864
     24  CB        11.4670    2.0430   23.3790 C.3    72  ILE72       0.0276
     25  CG1       12.2330    0.7450   23.0910 C.3    72  ILE72       0.0022
     26  CG2       12.1550    3.2100   22.6340 C.3    72  ILE72       0.0022
     27  CD1       11.9350    0.1080   21.7420 C.3    72  ILE72       0.0001
     28  N         11.9240    4.8710   28.7420 N.3    75  LYS75      -0.1231
     29  CA        13.3480    5.2080   28.8140 C.3    75  LYS75       0.1693
     30  C         13.7480    6.4550   28.0170 C.2    75  LYS75       0.2592
     31  O         14.8910    6.9070   28.1120 O.2    75  LYS75      -0.2718
     32  CB        14.1990    4.0110   28.3520 C.3    75  LYS75       0.0285
     33  CG        14.0790    2.7390   29.2100 C.3    75  LYS75       0.0035
     34  CD        14.7790    2.8420   30.5690 C.3    75  LYS75       0.0206
     35  CE        16.2920    2.6700   30.4580 C.3    75  LYS75       0.1093
     36  NZ        16.9570    2.7340   31.7890 N.3    75  LYS75      -0.1314
     37  N         12.8040    7.0290   27.2660 N.am   76  THR76      -0.1953
     38  CA        13.0720    8.2160   26.4410 C.3    76  THR76       0.1897
     39  C         13.2600    9.5260   27.1920 C.2    76  THR76       0.2313
     40  O         13.9000   10.4510   26.6820 O.2    76  THR76      -0.2863
     41  CB        11.9610    8.4780   25.3940 C.3    76  THR76       0.1794
     42  OG1       10.6870    8.5930   26.0450 O.3    76  THR76      -0.2208
     43  CG2       11.9350    7.4110   24.3220 C.3    76  THR76       0.0378
     44  N         12.8480   -2.0060   13.8480 N.3   218  LEU218     -0.1231
     45  CA        12.5420   -1.4830   15.1910 C.3   218  LEU218      0.1693
     46  C         13.0820   -0.0710   15.4330 C.2   218  LEU218      0.2592
     47  O         12.4660    0.7270   16.1490 O.2   218  LEU218     -0.2718
     48  CB        13.0790   -2.4490   16.2640 C.3   218  LEU218      0.0284
     49  CG        12.8460   -2.2020   17.7660 C.3   218  LEU218      0.0019
     50  CD1       11.3670   -2.2860   18.1230 C.3   218  LEU218      0.0001
     51  CD2       13.6440   -3.2050   18.5730 C.3   218  LEU218      0.0001
     52  N         14.1990    0.2380   14.7740 N.am  219  ASP219     -0.1974
     53  CA        14.8580    1.5410   14.8700 C.3   219  ASP219      0.1709
     54  C         14.0200    2.7150   14.3500 C.2   219  ASP219      0.2293
     55  O         14.2290    3.8630   14.7550 O.2   219  ASP219     -0.2864
     56  CB        16.2310    1.4990   14.1910 C.3   219  ASP219      0.1436
     57  CG        16.1840    0.9440   12.7760 C.2   219  ASP219      0.3671
     58  OD1       16.4500    1.7110   11.8310 O.co2 219  ASP219     -0.2456
     59  OD2       15.8990   -0.2590   12.6090 O.co2 219  ASP219     -0.2456
     60  N         11.5770    3.6270   17.1600 N.3   222  ILE222     -0.1245
     61  CA        12.3900    4.2980   18.1800 C.3   222  ILE222      0.1561
     62  C         12.5140    5.7890   17.8440 C.2   222  ILE222      0.2260
     63  O         12.4430    6.6330   18.7350 O.2   222  ILE222     -0.2867
     64  CB        13.7670    3.5860   18.3190 C.3   222  ILE222      0.0252
     65  CG1       13.5460    2.2550   19.0400 C.3   222  ILE222      0.0019
     66  CG2       14.8140    4.4610   19.0360 C.3   222  ILE222      0.0019
     67  CD1       14.6990    1.3060   19.0040 C.3   222  ILE222      0.0001
     68  N         10.6460    9.4340   19.6630 N.3   226  LEU226     -0.1231
     69  CA        11.4350   10.6110   20.0040 C.3   226  LEU226      0.1693
     70  C         10.9760   11.9070   19.3660 C.2   226  LEU226      0.2592
     71  O         10.8580   12.9330   20.0440 O.2   226  LEU226     -0.2718
     72  CB        12.9080   10.3880   19.6390 C.3   226  LEU226      0.0284
     73  CG        13.7280    9.3110   20.3470 C.3   226  LEU226      0.0019
     74  CD1       15.0100    9.0870   19.5710 C.3   226  LEU226      0.0001
     75  CD2       14.0210    9.6950   21.7850 C.3   226  LEU226      0.0001
     76  N         10.6900   11.8440   18.0690 N.am  227  PHE227     -0.1976
     77  CA        10.3130   13.0160   17.2860 C.3   227  PHE227      0.1639
     78  C          8.9820   13.6990   17.5720 C.2   227  PHE227      0.2290
     79  O          7.9380   13.0560   17.6240 O.2   227  PHE227     -0.2864
     80  CB        10.4620   12.7240   15.7870 C.3   227  PHE227      0.0560
     81  CG        11.8500   12.2820   15.3700 C.ar  227  PHE227     -0.0200
     82  CD1       12.0020   11.3030   14.3710 C.ar  227  PHE227     -0.0042
     83  CD2       13.0090   12.8200   15.9770 C.ar  227  PHE227     -0.0042
     84  CE1       13.2910   10.8530   13.9760 C.ar  227  PHE227     -0.0003
     85  CE2       14.3070   12.3840   15.5970 C.ar  227  PHE227     -0.0003
     86  CZ        14.4470   11.3970   14.5940 C.ar  227  PHE227     -0.0000
     87  N         23.0430    7.0690   10.9210 N.3   266  ILE266     -0.1245
     88  CA        21.7500    7.7650   10.8410 C.3   266  ILE266      0.1561
     89  C         21.5100    8.0700    9.3570 C.2   266  ILE266      0.2260
     90  O         22.2480    8.8460    8.7410 O.2   266  ILE266     -0.2867
     91  CB        21.6490    9.0820   11.6960 C.3   266  ILE266      0.0252
     92  CG1       22.0030    8.8360   13.1700 C.3   266  ILE266      0.0019
     93  CG2       20.2020    9.6150   11.6580 C.3   266  ILE266      0.0019
     94  CD1       22.1780   10.1060   14.0170 C.3   266  ILE266      0.0001
     95  N         18.2790    8.8570    6.4540 N.3   268  LEU268     -0.1245
     96  CA        16.8750    9.2090    6.2070 C.3   268  LEU268      0.1561
     97  C         16.7200    9.4140    4.7100 C.2   268  LEU268      0.2260
     98  O         17.4150   10.2310    4.1060 O.2   268  LEU268     -0.2867
     99  CB        16.3750   10.4440    6.9710 C.3   268  LEU268      0.0270
    100  CG        16.2130   10.4610    8.4900 C.3   268  LEU268      0.0019
    101  CD1       17.4860   10.9590    9.1200 C.3   268  LEU268      0.0001
    102  CD2       15.0500   11.3320    8.9230 C.3   268  LEU268      0.0001
    103  N         13.2450    6.5050    8.1380 N.3   277  PHE277     -0.1241
    104  CA        14.2730    6.7000    9.1640 C.3   277  PHE277      0.1605
    105  C         15.0100    5.3970    9.5030 C.2   277  PHE277      0.2264
    106  O         14.3830    4.3690    9.7540 O.2   277  PHE277     -0.2867
    107  CB        13.6070    7.3090   10.4200 C.3   277  PHE277      0.0534
    108  CG        14.5460    7.5490   11.5830 C.ar  277  PHE277     -0.0203
    109  CD1       15.4670    8.6100   11.5580 C.ar  277  PHE277     -0.0042
    110  CD2       14.5100    6.7150   12.7130 C.ar  277  PHE277     -0.0042
    111  CE1       16.3500    8.8480   12.6410 C.ar  277  PHE277     -0.0003
    112  CE2       15.3860    6.9360   13.8070 C.ar  277  PHE277     -0.0003
    113  CZ        16.3080    8.0070   13.7700 C.ar  277  PHE277     -0.0000
    114  N         18.3410    3.9380   11.9480 N.3   279  LEU279     -0.1231
    115  CA        19.2470    4.2320   13.0540 C.3   279  LEU279      0.1693
    116  C         19.9610    3.0010   13.6010 C.2   279  LEU279      0.2593
    117  O         19.3270    1.9950   13.9180 O.2   279  LEU279     -0.2718
    118  CB        18.4690    4.9140   14.1860 C.3   279  LEU279      0.0284
    119  CG        19.1040    5.3150   15.5200 C.3   279  LEU279      0.0019
    120  CD1       20.0460    6.4810   15.3410 C.3   279  LEU279      0.0001
    121  CD2       18.0020    5.6640   16.4950 C.3   279  LEU279      0.0001
    122  N         21.2840    3.0990   13.7200 N.am  280  SER280     -0.1938
    123  CA        22.0970    2.0200   14.2790 C.3   280  SER280      0.2055
    124  C         22.1850    2.2350   15.7910 C.2   280  SER280      0.2642
    125  O         22.0010    3.3580   16.2740 O.2   280  SER280     -0.2714
    126  CB        23.4950    2.0060   13.6610 C.3   280  SER280      0.2130
    127  OG        23.4370    1.7260   12.2710 O.3   280  SER280     -0.2179
    128  N         22.4760    1.1590   16.5220 N.am  281  LYS281     -0.1977
    129  CA        22.5780    1.1680   17.9880 C.3   281  LYS281      0.1596
    130  C         23.7400    1.9910   18.5550 C.2   281  LYS281      0.2287
    131  O         23.6640    2.4800   19.6880 O.2   281  LYS281     -0.2864
    132  CB        22.6930   -0.2680   18.5280 C.3   281  LYS281      0.0298
    133  CG        21.6280   -1.2570   18.0520 C.3   281  LYS281      0.0038
    134  CD        22.1040   -2.0610   16.8450 C.3   281  LYS281      0.0206
    135  CE        21.0440   -3.0400   16.3680 C.3   281  LYS281      0.1093
    136  NZ        21.5010   -3.8100   15.1760 N.3   281  LYS281     -0.1314
    137  N         24.8840    5.0710   17.9120 N.3   283  SER283     -0.1203
    138  CA        24.8530    6.5380   17.8160 C.3   283  SER283      0.2005
    139  C         25.2610    7.3470   19.0610 C.2   283  SER283      0.2460
    140  O         25.9970    8.3230   18.9160 O.2   283  SER283     -0.2732
    141  CB        23.5260    7.0570   17.2250 C.3   283  SER283      0.2103
    142  OG        22.4090    6.7670   18.0470 O.3   283  SER283     -0.2182
    143  N         24.8370    6.9450   20.2930 N.am  284  PRO284     -0.2728
    144  CA        25.2510    7.7390   21.4610 C.3   284  PRO284      0.1401
    145  C         26.7540    7.6770   21.7390 C.2   284  PRO284      0.2269
    146  O         27.3770    8.6970   22.0450 O.2   284  PRO284     -0.2865
    147  CB        24.4630    7.0950   22.6000 C.3   284  PRO284      0.0296
    148  CG        23.2600    6.5590   21.9220 C.3   284  PRO284      0.0237
    149  CD        23.8730    5.9150   20.7310 C.3   284  PRO284      0.0939
    150  N         21.9340   19.1830   21.3940 N.3   318  HIS318     -0.1241
    151  CA        20.7270   18.6930   20.7440 C.3   318  HIS318      0.1621
    152  C         20.2900   17.4100   21.4690 C.2   318  HIS318      0.2264
    153  O         21.0830   16.4790   21.6030 O.2   318  HIS318     -0.2867
    154  CB        20.9690   18.4170   19.2540 C.3   318  HIS318      0.0745
    155  CG        19.8010   17.7780   18.5770 C.ar  318  HIS318      0.0817
    156  ND1       18.5940   18.4240   18.4210 N.ar  318  HIS318     -0.2268
    157  CD2       19.6100   16.5100   18.1430 C.ar  318  HIS318      0.1154
    158  CE1       17.7070   17.5760   17.9330 C.ar  318  HIS318      0.1986
    159  NE2       18.2980   16.4080   17.7580 N.ar  318  HIS318     -0.2212
    160  N         18.9460   14.5500   20.9640 N.3   320  GLY320     -0.1210
    161  CA        18.6450   13.5050   19.9900 C.3   320  GLY320      0.1956
    162  C         18.0280   12.2810   20.6250 C.2   320  GLY320      0.2612
    163  O         17.2110   11.5880   20.0250 O.2   320  GLY320     -0.2717
    164  N         18.3980   12.0820   21.8820 N.am  321  GLY321     -0.1942
    165  CA        17.9090   10.9830   22.6830 C.3   321  GLY321      0.2014
    166  C         18.5250   11.1530   24.0490 C.2   321  GLY321      0.2639
    167  O         19.5390   11.8460   24.1870 O.2   321  GLY321     -0.2714
    168  N         17.9210   10.5270   25.0570 N.am  322  ARG322     -0.1963
    169  CA        18.4100   10.5900   26.4340 C.3   322  ARG322      0.1729
    170  C         19.8240   10.0100   26.5430 C.2   322  ARG322      0.2616
    171  O         20.6720   10.5760   27.2350 O.2   322  ARG322     -0.2715
    172  CB        17.4590    9.8340   27.3680 C.3   322  ARG322      0.0348
    173  CG        17.8400    9.8900   28.8480 C.3   322  ARG322      0.0492
    174  CD        17.7830    8.5130   29.4970 C.3   322  ARG322      0.2205
    175  NE        18.8900    7.6550   29.0790 N.pl3 322  ARG322     -0.0865
    176  CZ        18.7560    6.4610   28.5080 C.cat 322  ARG322      0.5346
    177  NH1       19.8360    5.7680   28.1750 N.pl3 322  ARG322      0.1354
    178  NH2       17.5520    5.9640   28.2490 N.pl3 322  ARG322      0.1354
    179  N         20.0810    8.9260   25.8060 N.am  323  ALA323     -0.1963
    180  CA        21.3880    8.2710   25.8160 C.3   323  ALA323      0.1728
    181  C         22.4940    9.1340   25.2120 C.2   323  ALA323      0.2616
    182  O         23.6310    9.0740   25.6780 O.2   323  ALA323     -0.2715
    183  CB        21.3220    6.9240   25.1320 C.3   323  ALA323      0.0334
    184  N         22.1500    9.9660   24.2200 N.am  324  ILE324     -0.1977
    185  CA        23.1220   10.8730   23.5910 C.3   324  ILE324      0.1596
    186  C         23.5350   11.9110   24.6350 C.2   324  ILE324      0.2287
    187  O         24.7260   12.1290   24.8430 O.2   324  ILE324     -0.2864
    188  CB        22.5670   11.5710   22.3000 C.3   324  ILE324      0.0276
    189  CG1       22.2830   10.5160   21.2200 C.3   324  ILE324      0.0022
    190  CG2       23.5770   12.6170   21.7680 C.3   324  ILE324      0.0022
    191  CD1       21.7000   11.0520   19.9170 C.3   324  ILE324      0.0001
    192  N         12.0160   15.4880   21.0260 N.3   351  ASN351     -0.1240
    193  CA        13.0540   15.8370   20.0580 C.3   351  ASN351      0.1653
    194  C         12.3530   16.4930   18.8660 C.2   351  ASN351      0.2266
    195  O         11.7730   15.8170   18.0170 O.2   351  ASN351     -0.2867
    196  CB        13.8130   14.5610   19.6440 C.3   351  ASN351      0.1155
    197  CG        14.9320   14.8100   18.6280 C.2   351  ASN351      0.2627
    198  OD1       15.0260   15.8670   18.0070 O.2   351  ASN351     -0.2716
    199  ND2       15.7560   13.7960   18.4270 N.am  351  ASN351     -0.0877
    200  N         23.5590   17.3770   16.3630 N.3   388  PHE388     -0.1227
    201  CA        24.0320   16.0330   15.9860 C.3   388  PHE388      0.1736
    202  C         23.0400   15.4290   15.0130 C.2   388  PHE388      0.2596
    203  O         21.8470   15.5020   15.2520 O.2   388  PHE388     -0.2718
    204  CB        24.0930   15.0800   17.1890 C.3   388  PHE388      0.0547
    205  CG        24.6860   15.6720   18.4350 C.ar  388  PHE388     -0.0202
    206  CD1       26.0450   16.0380   18.4880 C.ar  388  PHE388     -0.0042
    207  CD2       23.8930   15.8160   19.5860 C.ar  388  PHE388     -0.0042
    208  CE1       26.6140   16.5380   19.6870 C.ar  388  PHE388     -0.0003
    209  CE2       24.4410   16.3130   20.7960 C.ar  388  PHE388     -0.0003
    210  CZ        25.8070   16.6720   20.8470 C.ar  388  PHE388     -0.0000
    211  N         23.5220   14.8070   13.9420 N.am  389  GLY389     -0.1943
    212  CA        22.6050   14.2030   12.9910 C.3   389  GLY389      0.1998
    213  C         23.2630   13.3670   11.9160 C.2   389  GLY389      0.2480
    214  O         24.4320   13.0200   12.0630 O.2   389  GLY389     -0.2729
    215  N         22.5620   13.0730   10.7970 N.am  390  PRO390     -0.2726
    216  CA        23.0420   12.2700    9.6610 C.3   390  PRO390      0.1402
    217  C         24.4360   12.6100    9.1530 C.2   390  PRO390      0.2269
    218  O         24.7550   13.7770    8.9210 O.2   390  PRO390     -0.2865
    219  CB        21.9860   12.5320    8.6000 C.3   390  PRO390      0.0296
    220  CG        20.7660   12.6990    9.3900 C.3   390  PRO390      0.0237
    221  CD        21.2080   13.5860   10.5080 C.3   390  PRO390      0.0939
@<TRIPOS>BOND
     1    98    97    2
     2    97    96    1
     3    96    95    1
     4    96    99    1
     5    99   100    1
     6   103   104    1
     7   100   102    1
     8   100   101    1
     9   219   220    1
    10   219   216    1
    11    90    89    2
    12   218   217    2
    13   217   216    1
    14   104   105    1
    15   104   107    1
    16    89    88    1
    17   220   221    1
    18   105   106    2
    19   216   215    1
    20   107   108    1
    21   221   215    1
    22   215   213   am
    23    88    87    1
    24    88    91    1
    25   109   108   ar
    26   109   111   ar
    27   108   110   ar
    28    93    91    1
    29    91    92    1
    30    58    57   ar
    31   213   214    2
    32   213   212    1
    33   114   115    1
    34   127   126    1
    35    59    57   ar
    36   111   113   ar
    37   110   112   ar
    38    57    56    1
    39   212   211    1
    40   115   116    1
    41   115   118    1
    42    92    94    1
    43   116   122   am
    44   116   117    2
    45   126   123    1
    46   122   123    1
    47   113   112   ar
    48    44    45    1
    49   211   202   am
    50    84    82   ar
    51    84    86   ar
    52   118   119    1
    53    56    53    1
    54   123   124    1
    55    54    55    2
    56    54    53    1
    57    82    81   ar
    58    86    85   ar
    59    52    53    1
    60    52    46   am
    61   202   203    2
    62   202   201    1
    63   136   135    1
    64    45    46    1
    65    45    48    1
    66   120   119    1
    67    81    80    1
    68    81    83   ar
    69    46    47    2
    70   119   121    1
    71    85    83   ar
    72    80    77    1
    73   124   125    2
    74   124   128   am
    75   201   200    1
    76   201   204    1
    77    48    49    1
    78   135   134    1
    79   128   129    1
    80   134   133    1
    81    60    61    1
    82   204   205    1
    83   141   138    1
    84   141   142    1
    85    77    78    1
    86    77    76    1
    87    78    79    2
    88   159   158   ar
    89   159   157   ar
    90    49    50    1
    91    49    51    1
    92   138   137    1
    93   138   139    1
    94    62    61    1
    95    62    63    2
    96   158   156   ar
    97   129   132    1
    98   129   130    1
    99   198   197    2
   100   195   194    2
   101   133   132    1
   102    76    70   am
   103   157   155   ar
   104    61    64    1
   105    64    66    1
   106    64    65    1
   107   156   155   ar
   108   199   197   am
   109   205   206   ar
   110   205   207   ar
   111   206   208   ar
   112   130   131    2
   113   155   154    1
   114   197   196    1
   115   194   193    1
   116   140   139    2
   117    67    65    1
   118   139   143   am
   119   154   151    1
   120    70    69    1
   121    70    71    2
   122    74    73    1
   123   207   209   ar
   124    72    69    1
   125    72    73    1
   126   196   193    1
   127    68    69    1
   128   208   210   ar
   129   191   189    1
   130   161   162    1
   131   161   160    1
   132   163   162    2
   133   193   192    1
   134     9     8    1
   135   143   149    1
   136   143   144    1
   137    73    75    1
   138   162   164   am
   139   149   148    1
   140   151   150    1
   141   151   152    1
   142   209   210   ar
   143     7     8    1
   144     7     6    1
   145   189   188    1
   146   144   145    1
   147   144   147    1
   148   152   153    2
   149   145   146    2
   150    27    25    1
   151   190   188    1
   152   164   165    1
   153   148   147    1
   154   188   185    1
   155     6     5    1
   156     5     2    1
   157    26    24    1
   158   165   166    1
   159    25    24    1
   160    24    21    1
   161     3     2    1
   162     3     4    2
   163   185   184    1
   164   185   186    1
   165     2     1    1
   166   166   167    2
   167   166   168   am
   168   184   181   am
   169    43    41    1
   170   186   187    2
   171    21    22    1
   172    21    20    1
   173   168   169    1
   174   183   180    1
   175   181   182    2
   176   181   180    1
   177    22    23    2
   178    41    42    1
   179    41    38    1
   180    20    12   am
   181   179   180    1
   182   179   170   am
   183   169   170    1
   184   169   172    1
   185    38    39    1
   186    38    37    1
   187   170   171    2
   188    40    39    2
   189    10    11    1
   190    12    11    1
   191    12    13    2
   192    37    30   am
   193   172   173    1
   194    14    11    1
   195    14    15    1
   196    17    15   ar
   197    17    19   ar
   198    30    31    2
   199    30    29    1
   200   177   176    1
   201   178   176    1
   202    15    16   ar
   203    32    29    1
   204    32    33    1
   205   176   175    2
   206    28    29    1
   207   173   174    1
   208    19    18   ar
   209   175   174    1
   210    33    34    1
   211    16    18   ar
   212    35    34    1
   213    35    36    1
