@<TRIPOS>MOLECULE
tmp/2d3nA06.pdb
 104 102 0 0 0
SMALL
GASTEIGER

@<TRIPOS>ATOM
      1  N         28.6600  -36.6910   77.1600 N.3   162  ASP162     -0.1225
      2  CA        27.6890  -35.6280   77.3730 C.3   162  ASP162      0.1805
      3  C         26.3830  -36.1990   77.9120 C.2   162  ASP162      0.2597
      4  O         25.3500  -35.5400   77.8640 O.2   162  ASP162     -0.2718
      5  CB        27.4270  -34.8650   76.0670 C.3   162  ASP162      0.1424
      6  CG        26.8420  -35.7450   74.9700 C.2   162  ASP162      0.3668
      7  OD1       26.6660  -36.9620   75.1910 O.co2 162  ASP162     -0.2456
      8  OD2       26.5600  -35.2100   73.8740 O.co2 162  ASP162     -0.2456
      9  N         26.4300  -37.4170   78.4440 N.am  163  TRP163     -0.1976
     10  CA        25.2180  -38.0410   78.9610 C.3   163  TRP163      0.1640
     11  C         25.4410  -38.9940   80.1330 C.2   163  TRP163      0.2290
     12  O         26.1810  -39.9760   80.0270 O.2   163  TRP163     -0.2864
     13  CB        24.5050  -38.7770   77.8250 C.3   163  TRP163      0.0576
     14  CG        23.1600  -39.3280   78.1900 C.ar  163  TRP163      0.0006
     15  CD1       22.8430  -40.6380   78.4220 C.ar  163  TRP163      0.0946
     16  CD2       21.9380  -38.5900   78.3290 C.ar  163  TRP163      0.0152
     17  NE1       21.5010  -40.7610   78.6910 N.ar  163  TRP163     -0.2442
     18  CE2       20.9210  -39.5210   78.6410 C.ar  163  TRP163      0.0810
     19  CE3       21.6040  -37.2330   78.2180 C.ar  163  TRP163      0.0012
     20  CZ2       19.5880  -39.1370   78.8440 C.ar  163  TRP163      0.0191
     21  CZ3       20.2750  -36.8510   78.4200 C.ar  163  TRP163      0.0001
     22  CH2       19.2860  -37.8040   78.7290 C.ar  163  TRP163      0.0015
     23  N         23.6480  -41.5810   82.1620 N.3   165  GLN165     -0.1245
     24  CA        22.4650  -42.4360   82.1170 C.3   165  GLN165      0.1566
     25  C         21.6900  -42.5350   83.4340 C.2   165  GLN165      0.2260
     26  O         20.5190  -42.9180   83.4350 O.2   165  GLN165     -0.2867
     27  CB        22.8520  -43.8430   81.6430 C.3   165  GLN165      0.0367
     28  CG        21.6680  -44.7170   81.2460 C.3   165  GLN165      0.0905
     29  CD        20.7810  -44.0720   80.1890 C.2   165  GLN165      0.2608
     30  OE1       21.2440  -43.6970   79.1090 O.2   165  GLN165     -0.2717
     31  NE2       19.4950  -43.9420   80.4990 N.am  165  GLN165     -0.0878
     32  N         21.1240  -39.9070   85.5700 N.3   167  ARG167     -0.1231
     33  CA        20.4280  -38.6670   85.9000 C.3   167  ARG167      0.1694
     34  C         19.7770  -38.0350   84.6760 C.2   167  ARG167      0.2592
     35  O         18.8740  -37.2090   84.7980 O.2   167  ARG167     -0.2718
     36  CB        21.3970  -37.6860   86.5650 C.3   167  ARG167      0.0321
     37  CG        21.9740  -38.2060   87.8820 C.3   167  ARG167      0.0489
     38  CD        22.8370  -37.1610   88.5620 C.3   167  ARG167      0.2205
     39  NE        23.3600  -37.6190   89.8480 N.pl3 167  ARG167     -0.0865
     40  CZ        24.3510  -38.4930   89.9900 C.cat 167  ARG167      0.5346
     41  NH1       24.9400  -39.0120   88.9200 N.pl3 167  ARG167      0.1354
     42  NH2       24.7580  -38.8430   91.2050 N.pl3 167  ARG167      0.1354
     43  N         20.2570  -38.4260   83.4990 N.am  168  ARG168     -0.1966
     44  CA        19.7180  -37.9560   82.2280 C.3   168  ARG168      0.1729
     45  C         19.4640  -36.4490   82.1530 C.2   168  ARG168      0.2616
     46  O         18.3390  -36.0140   81.9040 O.2   168  ARG168     -0.2715
     47  CB        18.4200  -38.7160   81.9330 C.3   168  ARG168      0.0348
     48  CG        18.5600  -40.2310   82.0590 C.3   168  ARG168      0.0492
     49  CD        17.2420  -40.9520   81.7900 C.3   168  ARG168      0.2205
     50  NE        16.2960  -40.8280   82.8950 N.pl3 168  ARG168     -0.0865
     51  CZ        16.4480  -41.4230   84.0750 C.cat 168  ARG168      0.5346
     52  NH1       15.5390  -41.2550   85.0260 N.pl3 168  ARG168      0.1354
     53  NH2       17.5070  -42.1950   84.3040 N.pl3 168  ARG168      0.1354
     54  N         20.5130  -35.6580   82.3580 N.am  169  LEU169     -0.1963
     55  CA        20.4010  -34.2040   82.3100 C.3   169  LEU169      0.1728
     56  C         20.8460  -33.6620   80.9530 C.2   169  LEU169      0.2616
     57  O         21.8140  -34.1500   80.3610 O.2   169  LEU169     -0.2715
     58  CB        21.2480  -33.5760   83.4200 C.3   169  LEU169      0.0311
     59  CG        20.9100  -34.0400   84.8370 C.3   169  LEU169      0.0022
     60  CD1       21.9220  -33.4670   85.8180 C.3   169  LEU169      0.0001
     61  CD2       19.4950  -33.6000   85.1970 C.3   169  LEU169      0.0001
     62  N         20.1390  -32.6420   80.4700 N.am  170  ASN170     -0.1958
     63  CA        20.4410  -32.0380   79.1770 C.3   170  ASN170      0.1819
     64  C         21.4860  -30.9280   79.2780 C.2   170  ASN170      0.2621
     65  O         21.6940  -30.3470   80.3400 O.2   170  ASN170     -0.2715
     66  CB        19.1550  -31.4770   78.5530 C.3   170  ASN170      0.1195
     67  CG        19.3780  -30.8880   77.1720 C.2   170  ASN170      0.2630
     68  OD1       19.8140  -31.5770   76.2500 O.2   170  ASN170     -0.2716
     69  ND2       19.0730  -29.6050   77.0220 N.am  170  ASN170     -0.0877
     70  N         22.1460  -30.6600   78.1570 N.am  171  ASN171     -0.1958
     71  CA        23.1520  -29.6100   78.0540 C.3   171  ASN171      0.1819
     72  C         24.3270  -29.7370   79.0210 C.2   171  ASN171      0.2621
     73  O         24.8020  -28.7400   79.5660 O.2   171  ASN171     -0.2715
     74  CB        22.4840  -28.2390   78.2280 C.3   171  ASN171      0.1195
     75  CG        23.4190  -27.0890   77.9060 C.2   171  ASN171      0.2630
     76  OD1       24.0160  -27.0420   76.8300 O.2   171  ASN171     -0.2716
     77  ND2       23.5470  -26.1520   78.8390 N.am  171  ASN171     -0.0877
     78  N         24.8050  -30.9580   79.2250 N.am  172  ARG172     -0.1977
     79  CA        25.9380  -31.1750   80.1140 C.3   172  ARG172      0.1597
     80  C         27.0990  -31.8440   79.3760 C.2   172  ARG172      0.2287
     81  O         26.9010  -32.5530   78.3840 O.2   172  ARG172     -0.2864
     82  CB        25.5310  -32.0640   81.2960 C.3   172  ARG172      0.0334
     83  CG        24.3810  -31.5420   82.1510 C.3   172  ARG172      0.0492
     84  CD        24.7480  -30.2570   82.8690 C.3   172  ARG172      0.2205
     85  NE        24.0080  -30.0910   84.1180 N.pl3 172  ARG172     -0.0865
     86  CZ        22.6940  -29.9000   84.1990 C.cat 172  ARG172      0.5346
     87  NH1       21.9530  -29.8490   83.0970 N.pl3 172  ARG172      0.1354
     88  NH2       22.1190  -29.7530   85.3860 N.pl3 172  ARG172      0.1354
     89  N         33.0540  -33.3020   71.5150 N.3   197  LEU197     -0.1231
     90  CA        32.0650  -32.9630   70.4970 C.3   197  LEU197      0.1693
     91  C         30.7490  -33.7110   70.7020 C.2   197  LEU197      0.2591
     92  O         29.6920  -33.0970   70.8490 O.2   197  LEU197     -0.2718
     93  CB        32.6030  -33.2700   69.0940 C.3   197  LEU197      0.0284
     94  CG        31.5920  -33.0620   67.9540 C.3   197  LEU197      0.0019
     95  CD1       31.1950  -31.5910   67.8730 C.3   197  LEU197      0.0001
     96  CD2       32.1920  -33.5320   66.6320 C.3   197  LEU197      0.0001
     97  N         30.8230  -35.0370   70.7190 N.am  198  MET198     -0.1979
     98  CA        29.6350  -35.8750   70.8780 C.3   198  MET198      0.1605
     99  C         30.0270  -37.2810   71.3060 C.2   198  MET198      0.2287
    100  O         31.2090  -37.6300   71.2970 O.2   198  MET198     -0.2864
    101  CB        28.8730  -35.9620   69.5530 C.3   198  MET198      0.0413
    102  CG        29.7210  -36.5000   68.4000 C.3   198  MET198      0.0598
    103  SD        28.7990  -36.7280   66.8600 S.3   198  MET198     -0.1393
    104  CE        28.8360  -35.0410   66.2070 C.3   198  MET198      0.0692
@<TRIPOS>BOND
     1   104   103    1
     2    96    94    1
     3   103   102    1
     4    95    94    1
     5    94    93    1
     6   102   101    1
     7    93    90    1
     8   101    98    1
     9    90    91    1
    10    90    89    1
    11    91    97   am
    12    91    92    2
    13    97    98    1
    14    98    99    1
    15   100    99    2
    16     8     6   ar
    17     6     7   ar
    18     6     5    1
    19     5     2    1
    20    68    67    2
    21    76    75    2
    22    69    67   am
    23     1     2    1
    24    67    66    1
    25     2     3    1
    26    13    14    1
    27    13    10    1
    28     4     3    2
    29    75    74    1
    30    75    77   am
    31     3     9   am
    32    71    70    1
    33    71    74    1
    34    71    72    1
    35    70    64   am
    36    14    16   ar
    37    14    15   ar
    38    19    16   ar
    39    19    21   ar
    40    16    18   ar
    41    81    80    2
    42    21    22   ar
    43    15    17   ar
    44     9    10    1
    45    66    63    1
    46    18    17   ar
    47    18    20   ar
    48    22    20   ar
    49    10    11    1
    50    72    78   am
    51    72    73    2
    52    30    29    2
    53    63    64    1
    54    63    62    1
    55    78    79    1
    56    64    65    2
    57    80    79    1
    58    12    11    2
    59    79    82    1
    60    29    31   am
    61    29    28    1
    62    57    56    2
    63    62    56   am
    64    56    55    1
    65    28    27    1
    66    82    83    1
    67    27    24    1
    68    49    48    1
    69    49    50    1
    70    46    45    2
    71    47    48    1
    72    47    44    1
    73    24    23    1
    74    24    25    1
    75    83    84    1
    76    45    44    1
    77    45    54   am
    78    44    43    1
    79    55    54    1
    80    55    58    1
    81    84    85    1
    82    50    51    2
    83    87    86    1
    84    58    59    1
    85    25    26    2
    86    43    34   am
    87    51    53    1
    88    51    52    1
    89    85    86    2
    90    86    88    1
    91    34    35    2
    92    34    33    1
    93    59    61    1
    94    59    60    1
    95    32    33    1
    96    33    36    1
    97    36    37    1
    98    37    38    1
    99    38    39    1
   100    41    40    1
   101    39    40    2
   102    40    42    1
