@<TRIPOS>MOLECULE
tmp/2d3nA05.pdb
 75 71 0 0 0
SMALL
GASTEIGER

@<TRIPOS>ATOM
      1  N         25.8550  -16.8600   46.7640 N.3   297  SER297     -0.1202
      2  CA        24.6030  -17.3690   46.2100 C.3   297  SER297      0.2020
      3  C         23.3700  -16.8260   46.9300 C.2   297  SER297      0.2618
      4  O         22.2610  -16.9170   46.4100 O.2   297  SER297     -0.2717
      5  CB        24.5780  -18.9050   46.2500 C.3   297  SER297      0.2103
      6  OG        24.2410  -19.3950   47.5430 O.3   297  SER297     -0.2182
      7  N         23.5640  -16.2700   48.1240 N.am  298  LYS298     -0.1979
      8  CA        22.4590  -15.7110   48.9040 C.3   298  LYS298      0.1596
      9  C         22.3810  -14.1870   48.8340 C.2   298  LYS298      0.2287
     10  O         21.4610  -13.5820   49.3930 O.2   298  LYS298     -0.2864
     11  CB        22.5920  -16.1090   50.3830 C.3   298  LYS298      0.0298
     12  CG        22.3910  -17.5850   50.6780 C.3   298  LYS298      0.0038
     13  CD        20.9810  -18.0160   50.3200 C.3   298  LYS298      0.0206
     14  CE        20.6460  -19.3720   50.9050 C.3   298  LYS298      0.1093
     15  NZ        19.3740  -19.9000   50.3420 N.3   298  LYS298     -0.1314
     16  N         21.9200  -12.2400   46.1400 N.3   300  GLY300     -0.1210
     17  CA        21.1610  -11.7200   45.0150 C.3   300  GLY300      0.1956
     18  C         21.9050  -10.8410   44.0300 C.2   300  GLY300      0.2612
     19  O         21.3090   -9.9490   43.4260 O.2   300  GLY300     -0.2717
     20  N         23.2010  -11.0890   43.8570 N.am  301  GLY301     -0.1956
     21  CA        23.9860  -10.3010   42.9250 C.3   301  GLY301      0.1869
     22  C         24.8210   -9.2040   43.5600 C.2   301  GLY301      0.2309
     23  O         25.6700   -8.6090   42.8950 O.2   301  GLY301     -0.2863
     24  N         22.9200  -21.9860   46.6040 N.3   341  GLU341     -0.1245
     25  CA        21.7240  -21.9660   45.7630 C.3   341  GLU341      0.1567
     26  C         21.9400  -22.5170   44.3600 C.2   341  GLU341      0.2260
     27  O         22.9910  -22.3160   43.7470 O.2   341  GLU341     -0.2867
     28  CB        21.1480  -20.5480   45.6820 C.3   341  GLU341      0.0388
     29  CG        20.6080  -20.0460   47.0110 C.3   341  GLU341      0.1160
     30  CD        19.6630  -18.8630   46.8620 C.2   341  GLU341      0.3649
     31  OE1       19.0680  -18.4560   47.8830 O.co2 341  GLU341     -0.2457
     32  OE2       19.5120  -18.3430   45.7340 O.co2 341  GLU341     -0.2457
     33  N         20.9720  -21.6680   41.3620 N.3   343  TRP343     -0.1241
     34  CA        21.3770  -20.7680   40.2800 C.3   343  TRP343      0.1605
     35  C         22.8780  -20.4870   40.2850 C.2   343  TRP343      0.2264
     36  O         23.4890  -20.3160   39.2320 O.2   343  TRP343     -0.2867
     37  CB        20.6260  -19.4250   40.3510 C.3   343  TRP343      0.0550
     38  CG        21.0500  -18.5130   41.4880 C.ar  343  TRP343      0.0003
     39  CD1       20.6380  -18.5750   42.7910 C.ar  343  TRP343      0.0946
     40  CD2       21.9840  -17.4240   41.4180 C.ar  343  TRP343      0.0152
     41  NE1       21.2580  -17.5980   43.5350 N.ar  343  TRP343     -0.2442
     42  CE2       22.0870  -16.8760   42.7160 C.ar  343  TRP343      0.0810
     43  CE3       22.7420  -16.8600   40.3840 C.ar  343  TRP343      0.0012
     44  CZ2       22.9210  -15.7870   43.0070 C.ar  343  TRP343      0.0191
     45  CZ3       23.5730  -15.7740   40.6750 C.ar  343  TRP343      0.0001
     46  CH2       23.6520  -15.2530   41.9760 C.ar  343  TRP343      0.0015
     47  N         27.3090  -12.9060   38.7240 N.3   428  ASP428     -0.1225
     48  CA        26.3040  -13.1900   39.7420 C.3   428  ASP428      0.1805
     49  C         25.2090  -12.1390   39.5990 C.2   428  ASP428      0.2598
     50  O         24.2900  -12.0530   40.4120 O.2   428  ASP428     -0.2718
     51  CB        26.9260  -13.1480   41.1450 C.3   428  ASP428      0.1424
     52  CG        27.3130  -11.7450   41.5830 C.2   428  ASP428      0.3668
     53  OD1       27.7620  -10.9430   40.7300 O.co2 428  ASP428     -0.2456
     54  OD2       27.1820  -11.4570   42.7950 O.co2 428  ASP428     -0.2456
     55  N         25.3200  -11.3450   38.5410 N.am  429  GLY429     -0.1942
     56  CA        24.3400  -10.3070   38.2820 C.3   429  GLY429      0.2014
     57  C         24.0400  -10.2350   36.7980 C.2   429  GLY429      0.2639
     58  O         23.9160  -11.2660   36.1430 O.2   429  GLY429     -0.2714
     59  N         23.9390   -9.0200   36.2670 N.am  430  ALA430     -0.1963
     60  CA        23.6560   -8.8180   34.8510 C.3   430  ALA430      0.1728
     61  C         24.7550   -9.3980   33.9590 C.2   430  ALA430      0.2616
     62  O         25.9350   -9.3760   34.3170 O.2   430  ALA430     -0.2715
     63  CB        23.4870   -7.3240   34.5630 C.3   430  ALA430      0.0334
     64  N         24.3590   -9.9090   32.7950 N.am  431  GLY431     -0.1955
     65  CA        25.3210  -10.4710   31.8640 C.3   431  GLY431      0.1869
     66  C         26.1610   -9.3900   31.2040 C.2   431  GLY431      0.2309
     67  O         25.9020   -8.1950   31.3740 O.2   431  GLY431     -0.2863
     68  N         23.2650  -13.3290   32.2100 N.3   472  GLY472     -0.1210
     69  CA        23.1260  -12.9200   33.6000 C.3   472  GLY472      0.1956
     70  C         23.0420  -14.1130   34.5440 C.2   472  GLY472      0.2612
     71  O         22.4910  -15.1490   34.1850 O.2   472  GLY472     -0.2717
     72  N         23.5900  -13.9660   35.7500 N.am  473  GLY473     -0.1956
     73  CA        23.5570  -15.0430   36.7270 C.3   473  GLY473      0.1869
     74  C         23.8780  -16.3900   36.1080 C.2   473  GLY473      0.2309
     75  O         23.1430  -17.3630   36.2830 O.2   473  GLY473     -0.2863
@<TRIPOS>BOND
     1    66    67    2
     2    66    65    1
     3    65    64    1
     4    68    69    1
     5    64    61   am
     6    69    70    1
     7    61    62    2
     8    61    60    1
     9    71    70    2
    10    70    72   am
    11    63    60    1
    12    60    59    1
    13    72    73    1
    14    74    75    2
    15    74    73    1
    16    58    57    2
    17    59    57   am
    18    57    56    1
    19    56    55    1
    20    55    49   am
    21    47    48    1
    22    36    35    2
    23    49    48    1
    24    49    50    2
    25    48    51    1
    26    34    35    1
    27    34    37    1
    28    34    33    1
    29    37    38    1
    30    43    45   ar
    31    43    40   ar
    32    45    46   ar
    33    53    52   ar
    34    51    52    1
    35    40    38   ar
    36    40    42   ar
    37    38    39   ar
    38    52    54   ar
    39    46    44   ar
    40    42    44   ar
    41    42    41   ar
    42    39    41   ar
    43    23    22    2
    44    21    22    1
    45    21    20    1
    46    19    18    2
    47    27    26    2
    48    20    18   am
    49    18    17    1
    50    26    25    1
    51    17    16    1
    52    28    25    1
    53    28    29    1
    54    32    30   ar
    55    25    24    1
    56     2     5    1
    57     2     1    1
    58     2     3    1
    59     5     6    1
    60     4     3    2
    61    30    29    1
    62    30    31   ar
    63     3     7   am
    64     7     8    1
    65     9     8    1
    66     9    10    2
    67     8    11    1
    68    13    12    1
    69    13    14    1
    70    15    14    1
    71    11    12    1
