@<TRIPOS>MOLECULE
tmp/2d3nA01.pdb
 96 94 0 0 0
SMALL
GASTEIGER

@<TRIPOS>ATOM
      1  N         37.7500  -22.9210   70.2490 N.3   190  GLU190     -0.1245
      2  CA        36.4000  -22.4010   70.4210 C.3   190  GLU190      0.1567
      3  C         35.8640  -23.1470   71.6420 C.2   190  GLU190      0.2260
      4  O         36.1240  -24.3410   71.7990 O.2   190  GLU190     -0.2867
      5  CB        35.5290  -22.6900   69.1950 C.3   190  GLU190      0.0388
      6  CG        34.1070  -22.1520   69.3350 C.3   190  GLU190      0.1160
      7  CD        33.2730  -22.3150   68.0750 C.2   190  GLU190      0.3649
      8  OE1       32.0410  -22.1240   68.1520 O.co2 190  GLU190     -0.2457
      9  OE2       33.8420  -22.6240   67.0090 O.co2 190  GLU190     -0.2457
     10  N         37.9720  -27.4580   72.4660 N.3   194  TYR194     -0.1241
     11  CA        36.9590  -28.1640   71.6830 C.3   194  TYR194      0.1605
     12  C         37.1940  -29.6590   71.4940 C.2   194  TYR194      0.2264
     13  O         36.7050  -30.2530   70.5320 O.2   194  TYR194     -0.2867
     14  CB        36.8100  -27.4980   70.3060 C.3   194  TYR194      0.0534
     15  CG        35.3730  -27.3460   69.8370 C.ar  194  TYR194     -0.0201
     16  CD1       34.3620  -28.1900   70.3120 C.ar  194  TYR194     -0.0009
     17  CD2       35.0270  -26.3700   68.8970 C.ar  194  TYR194     -0.0009
     18  CE1       33.0480  -28.0620   69.8630 C.ar  194  TYR194      0.0417
     19  CE2       33.7180  -26.2360   68.4430 C.ar  194  TYR194      0.0417
     20  CZ        32.7360  -27.0820   68.9260 C.ar  194  TYR194      0.1957
     21  OH        31.4490  -26.9610   68.4580 O.3   194  TYR194     -0.2866
     22  N         33.0540  -33.3020   71.5150 N.3   197  LEU197     -0.1245
     23  CA        32.0650  -32.9630   70.4970 C.3   197  LEU197      0.1561
     24  C         30.7490  -33.7110   70.7020 C.2   197  LEU197      0.2260
     25  O         29.6920  -33.0970   70.8490 O.2   197  LEU197     -0.2867
     26  CB        32.6030  -33.2700   69.0940 C.3   197  LEU197      0.0270
     27  CG        31.5920  -33.0620   67.9540 C.3   197  LEU197      0.0019
     28  CD1       31.1950  -31.5910   67.8730 C.3   197  LEU197      0.0001
     29  CD2       32.1920  -33.5320   66.6320 C.3   197  LEU197      0.0001
     30  N         39.3660  -30.8830   64.1140 N.3   235  LYS235     -0.1231
     31  CA        39.5940  -29.7740   65.0280 C.3   235  LYS235      0.1693
     32  C         39.2930  -30.1990   66.4670 C.2   235  LYS235      0.2592
     33  O         39.5960  -29.4670   67.4100 O.2   235  LYS235     -0.2718
     34  CB        38.7520  -28.5480   64.6380 C.3   235  LYS235      0.0285
     35  CG        37.2720  -28.5970   65.0160 C.3   235  LYS235      0.0035
     36  CD        36.5610  -27.3170   64.5540 C.3   235  LYS235      0.0206
     37  CE        35.0990  -27.2860   64.9940 C.3   235  LYS235      0.1093
     38  NZ        34.4290  -26.0040   64.6200 N.3   235  LYS235     -0.1314
     39  N         38.7160  -31.3910   66.6210 N.am  236  HIS236     -0.1976
     40  CA        38.3640  -31.9340   67.9340 C.3   236  HIS236      0.1656
     41  C         39.3270  -33.0570   68.3310 C.2   236  HIS236      0.2291
     42  O         39.1520  -33.6950   69.3680 O.2   236  HIS236     -0.2864
     43  CB        36.9430  -32.5080   67.9070 C.3   236  HIS236      0.0771
     44  CG        35.9190  -31.5670   67.3510 C.ar  236  HIS236      0.0820
     45  ND1       35.4680  -30.4630   68.0410 N.ar  236  HIS236     -0.2267
     46  CD2       35.2670  -31.5620   66.1640 C.ar  236  HIS236      0.1154
     47  CE1       34.5800  -29.8180   67.3030 C.ar  236  HIS236      0.1986
     48  NE2       34.4400  -30.4640   66.1590 N.ar  236  HIS236     -0.2212
     49  N         36.3880  -28.1750   60.2400 N.3   264  TRP264     -0.1227
     50  CA        35.2760  -27.2820   59.9800 C.3   264  TRP264      0.1737
     51  C         35.2240  -26.0060   60.7900 C.2   264  TRP264      0.2595
     52  O         34.6650  -25.9670   61.8810 O.2   264  TRP264     -0.2718
     53  CB        33.9390  -28.0110   60.1110 C.3   264  TRP264      0.0564
     54  CG        32.8410  -27.2240   59.4490 C.ar  264  TRP264      0.0003
     55  CD1       32.1640  -26.1520   59.9650 C.ar  264  TRP264      0.0946
     56  CD2       32.3800  -27.3810   58.1050 C.ar  264  TRP264      0.0152
     57  NE1       31.3140  -25.6280   59.0170 N.ar  264  TRP264     -0.2442
     58  CE2       31.4250  -26.3640   57.8670 C.ar  264  TRP264      0.0810
     59  CE3       32.6830  -28.2800   57.0740 C.ar  264  TRP264      0.0012
     60  CZ2       30.7700  -26.2230   56.6410 C.ar  264  TRP264      0.0191
     61  CZ3       32.0300  -28.1390   55.8490 C.ar  264  TRP264      0.0001
     62  CH2       31.0840  -27.1170   55.6460 C.ar  264  TRP264      0.0015
     63  N         35.8150  -24.9550   60.2350 N.am  265  LYS265     -0.1980
     64  CA        35.8030  -23.6490   60.8650 C.3   265  LYS265      0.1596
     65  C         36.0090  -22.6350   59.7510 C.2   265  LYS265      0.2287
     66  O         36.9070  -22.7860   58.9290 O.2   265  LYS265     -0.2864
     67  CB        36.9120  -23.5340   61.9150 C.3   265  LYS265      0.0298
     68  CG        36.6690  -22.4170   62.9300 C.3   265  LYS265      0.0038
     69  CD        37.7370  -22.3870   64.0210 C.3   265  LYS265      0.0206
     70  CE        37.4380  -21.2950   65.0430 C.3   265  LYS265      0.1093
     71  NZ        38.4790  -21.2320   66.1110 N.3   265  LYS265     -0.1314
     72  N         31.8950  -21.1770   52.3570 N.3   291  TYR291     -0.1241
     73  CA        31.0470  -20.1140   52.8880 C.3   291  TYR291      0.1605
     74  C         30.9870  -18.9010   51.9630 C.2   291  TYR291      0.2264
     75  O         29.9550  -18.2410   51.8750 O.2   291  TYR291     -0.2867
     76  CB        31.5070  -19.7230   54.2990 C.3   291  TYR291      0.0534
     77  CG        31.0040  -20.6850   55.3590 C.ar  291  TYR291     -0.0201
     78  CD1       29.6590  -20.6920   55.7360 C.ar  291  TYR291     -0.0009
     79  CD2       31.8530  -21.6280   55.9370 C.ar  291  TYR291     -0.0009
     80  CE1       29.1700  -21.6190   56.6620 C.ar  291  TYR291      0.0417
     81  CE2       31.3740  -22.5640   56.8640 C.ar  291  TYR291      0.0417
     82  CZ        30.0320  -22.5520   57.2190 C.ar  291  TYR291      0.1957
     83  OH        29.5480  -23.4780   58.1160 O.3   291  TYR291     -0.2866
     84  N         23.0890  -30.2910   60.0830 N.3   335  ALA335     -0.1231
     85  CA        23.7990  -29.5570   61.1280 C.3   335  ALA335      0.1694
     86  C         24.4360  -28.2190   60.7630 C.2   335  ALA335      0.2591
     87  O         24.3300  -27.2530   61.5190 O.2   335  ALA335     -0.2718
     88  CB        24.8530  -30.4700   61.7570 C.3   335  ALA335      0.0304
     89  N         25.0990  -28.1580   59.6170 N.am  336  LEU336     -0.1980
     90  CA        25.7570  -26.9270   59.1970 C.3   336  LEU336      0.1596
     91  C         25.1420  -26.3810   57.9150 C.2   336  LEU336      0.2287
     92  O         25.8370  -25.7670   57.1040 O.2   336  LEU336     -0.2864
     93  CB        27.2500  -27.1970   58.9890 C.3   336  LEU336      0.0297
     94  CG        28.0040  -27.6790   60.2350 C.3   336  LEU336      0.0022
     95  CD1       29.3500  -28.2610   59.8410 C.3   336  LEU336      0.0001
     96  CD2       28.1720  -26.5230   61.2000 C.3   336  LEU336      0.0001
@<TRIPOS>BOND
     1    75    74    2
     2    74    73    1
     3    72    73    1
     4    73    76    1
     5    76    77    1
     6    77    78   ar
     7    77    79   ar
     8    62    61   ar
     9    62    60   ar
    10    78    80   ar
    11    61    59   ar
    12    79    81   ar
    13    60    58   ar
    14    80    82   ar
    15    81    82   ar
    16    59    56   ar
    17    92    91    2
    18    82    83    1
    19    58    56   ar
    20    58    57   ar
    21    91    90    1
    22    56    54   ar
    23    66    65    2
    24    93    90    1
    25    93    94    1
    26    57    55   ar
    27    90    89    1
    28    54    55   ar
    29    54    53    1
    30    89    86   am
    31    65    64    1
    32    95    94    1
    33    50    53    1
    34    50    49    1
    35    50    51    1
    36    84    85    1
    37    63    51   am
    38    63    64    1
    39    94    96    1
    40    86    85    1
    41    86    87    2
    42    51    52    2
    43    64    67    1
    44    85    88    1
    45    67    68    1
    46    68    69    1
    47    69    70    1
    48    30    31    1
    49    36    37    1
    50    36    35    1
    51    38    37    1
    52    34    35    1
    53    34    31    1
    54    31    32    1
    55    70    71    1
    56    48    46   ar
    57    48    47   ar
    58    46    44   ar
    59    32    39   am
    60    32    33    2
    61    39    40    1
    62    29    27    1
    63     9     7   ar
    64    47    45   ar
    65    44    43    1
    66    44    45   ar
    67    28    27    1
    68    43    40    1
    69    40    41    1
    70    27    26    1
    71     7     8   ar
    72     7     6    1
    73    41    42    2
    74    19    17   ar
    75    19    20   ar
    76    21    20    1
    77    17    15   ar
    78    20    18   ar
    79    26    23    1
    80     5     6    1
    81     5     2    1
    82    15    14    1
    83    15    16   ar
    84    18    16   ar
    85     1     2    1
    86    14    11    1
    87     2     3    1
    88    23    24    1
    89    23    22    1
    90    13    12    2
    91    24    25    2
    92    12    11    1
    93     3     4    2
    94    11    10    1
