@<TRIPOS>MOLECULE
tmp/2d3nA00.pdb
 205 201 0 0 0
SMALL
GASTEIGER

@<TRIPOS>ATOM
      1  N         23.5240  -37.2350   52.9550 N.3    11  TRP11      -0.1241
      2  CA        22.9110  -37.6360   54.2170 C.3    11  TRP11       0.1605
      3  C         21.6210  -38.4460   54.1450 C.2    11  TRP11       0.2264
      4  O         21.4580  -39.4230   54.8790 O.2    11  TRP11      -0.2867
      5  CB        22.6760  -36.4000   55.0880 C.3    11  TRP11       0.0550
      6  CG        22.3710  -36.7350   56.5110 C.ar   11  TRP11       0.0003
      7  CD1       21.1440  -36.9930   57.0560 C.ar   11  TRP11       0.0946
      8  CD2       23.3230  -36.9050   57.5650 C.ar   11  TRP11       0.0152
      9  NE1       21.2760  -37.3160   58.3850 N.ar   11  TRP11      -0.2442
     10  CE2       22.6030  -37.2700   58.7230 C.ar   11  TRP11       0.0810
     11  CE3       24.7180  -36.7880   57.6430 C.ar   11  TRP11       0.0012
     12  CZ2       23.2320  -37.5190   59.9470 C.ar   11  TRP11       0.0191
     13  CZ3       25.3440  -37.0380   58.8630 C.ar   11  TRP11       0.0001
     14  CH2       24.5980  -37.3990   59.9950 C.ar   11  TRP11       0.0015
     15  N         25.7440  -46.8010   65.0840 N.3    47  ALA47      -0.1231
     16  CA        24.9170  -47.0870   66.2570 C.3    47  ALA47       0.1694
     17  C         23.6400  -47.8230   65.8800 C.2    47  ALA47       0.2592
     18  O         22.9500  -48.3610   66.7430 O.2    47  ALA47      -0.2718
     19  CB        24.5760  -45.7980   66.9880 C.3    47  ALA47       0.0304
     20  N         23.3220  -47.8310   64.5910 N.am   48  SER48      -0.1952
     21  CA        22.1340  -48.5180   64.0920 C.3    48  SER48       0.1924
     22  C         22.3300  -48.7620   62.6040 C.2    48  SER48       0.2314
     23  O         23.2890  -48.2710   62.0110 O.2    48  SER48      -0.2863
     24  CB        20.8720  -47.6750   64.3240 C.3    48  SER48       0.2116
     25  OG        20.8640  -46.5100   63.5160 O.3    48  SER48      -0.2180
     26  N         22.2940  -45.5320   60.3910 N.3    51  ASP51      -0.1239
     27  CA        23.2410  -44.4850   60.7720 C.3    51  ASP51       0.1674
     28  C         24.0790  -44.1680   59.5320 C.2    51  ASP51       0.2266
     29  O         24.4670  -45.0760   58.7950 O.2    51  ASP51      -0.2867
     30  CB        24.1390  -44.9880   61.9080 C.3    51  ASP51       0.1410
     31  CG        24.8990  -43.8700   62.6070 C.2    51  ASP51       0.3668
     32  OD1       25.8010  -43.2620   61.9910 O.co2  51  ASP51      -0.2456
     33  OD2       24.5880  -43.5970   63.7860 O.co2  51  ASP51      -0.2456
     34  N         28.7170  -41.8710   61.0680 N.3    54  TYR54      -0.1227
     35  CA        29.4620  -41.0510   62.0130 C.3    54  TYR54       0.1736
     36  C         29.1760  -41.3830   63.4710 C.2    54  TYR54       0.2596
     37  O         29.8660  -40.9080   64.3750 O.2    54  TYR54      -0.2718
     38  CB        29.2240  -39.5740   61.6940 C.3    54  TYR54       0.0548
     39  CG        29.7450  -39.2290   60.3160 C.ar   54  TYR54      -0.0200
     40  CD1       31.1110  -39.2990   60.0330 C.ar   54  TYR54      -0.0009
     41  CD2       28.8720  -38.9110   59.2710 C.ar   54  TYR54      -0.0009
     42  CE1       31.5990  -39.0700   58.7440 C.ar   54  TYR54       0.0417
     43  CE2       29.3510  -38.6810   57.9770 C.ar   54  TYR54       0.0417
     44  CZ        30.7120  -38.7650   57.7220 C.ar   54  TYR54       0.1957
     45  OH        31.1900  -38.5700   56.4420 O.3    54  TYR54      -0.2866
     46  N         28.1540  -42.2020   63.6920 N.am   55  GLY55      -0.1957
     47  CA        27.8410  -42.6500   65.0340 C.3    55  GLY55       0.1869
     48  C         28.6080  -43.9590   65.0930 C.2    55  GLY55       0.2309
     49  O         28.0450  -45.0280   65.3380 O.2    55  GLY55      -0.2863
     50  N         24.2180  -54.4520   66.5000 N.3    68  LYS68      -0.1245
     51  CA        23.2940  -53.3250   66.4540 C.3    68  LYS68       0.1561
     52  C         22.0360  -53.6540   65.6610 C.2    68  LYS68       0.2260
     53  O         21.4360  -52.7840   65.0310 O.2    68  LYS68      -0.2867
     54  CB        23.9910  -52.0880   65.8730 C.3    68  LYS68       0.0271
     55  CG        25.0840  -51.5480   66.7790 C.3    68  LYS68       0.0035
     56  CD        24.4970  -51.1670   68.1310 C.3    68  LYS68       0.0206
     57  CE        25.5640  -50.8860   69.1610 C.3    68  LYS68       0.1093
     58  NZ        24.9650  -50.5410   70.4820 N.3    68  LYS68      -0.1314
     59  N         33.3310  -42.6150   69.8300 N.3   104  LYS104     -0.1231
     60  CA        32.6910  -43.9080   69.6170 C.3   104  LYS104      0.1693
     61  C         31.2930  -43.7810   70.2160 C.2   104  LYS104      0.2593
     62  O         31.1380  -43.2750   71.3290 O.2   104  LYS104     -0.2718
     63  CB        33.4310  -45.0450   70.3330 C.3   104  LYS104      0.0285
     64  CG        34.7750  -45.4190   69.7400 C.3   104  LYS104      0.0035
     65  CD        35.3180  -46.6960   70.3800 C.3   104  LYS104      0.0206
     66  CE        34.6060  -47.9490   69.8710 C.3   104  LYS104      0.1093
     67  NZ        34.9530  -48.2240   68.4380 N.3   104  LYS104     -0.1314
     68  N         30.2820  -44.2290   69.4790 N.am  105  GLY105     -0.1942
     69  CA        28.9170  -44.1580   69.9730 C.3   105  GLY105      0.2014
     70  C         28.2570  -45.5220   69.9250 C.2   105  GLY105      0.2639
     71  O         28.7600  -46.4320   69.2700 O.2   105  GLY105     -0.2714
     72  N         27.1320  -45.6730   70.6130 N.am  106  GLY106     -0.1939
     73  CA        26.4440  -46.9530   70.6100 C.3   106  GLY106      0.2014
     74  C         27.1290  -47.9950   71.4760 C.2   106  GLY106      0.2638
     75  O         27.1240  -49.1780   71.1470 O.2   106  GLY106     -0.2714
     76  N         27.7210  -47.5600   72.5840 N.am  107  ALA107     -0.1977
     77  CA        28.4080  -48.4820   73.4890 C.3   107  ALA107      0.1597
     78  C         27.5020  -49.6510   73.8700 C.2   107  ALA107      0.2287
     79  O         26.2810  -49.5040   73.9610 O.2   107  ALA107     -0.2864
     80  CB        28.8630  -47.7480   74.7420 C.3   107  ALA107      0.0319
     81  N         28.1560  -44.3110   78.8360 N.3   136  TRP136     -0.1241
     82  CA        28.1580  -45.3290   77.7820 C.3   136  TRP136      0.1605
     83  C         29.5660  -45.4190   77.2060 C.2   136  TRP136      0.2264
     84  O         29.8630  -44.8620   76.1440 O.2   136  TRP136     -0.2867
     85  CB        27.1550  -44.9600   76.6810 C.3   136  TRP136      0.0550
     86  CG        25.7230  -45.0690   77.1270 C.ar  136  TRP136      0.0003
     87  CD1       24.9520  -44.0840   77.6780 C.ar  136  TRP136      0.0946
     88  CD2       24.9170  -46.2550   77.1240 C.ar  136  TRP136      0.0152
     89  NE1       23.7150  -44.5850   78.0250 N.ar  136  TRP136     -0.2442
     90  CE2       23.6690  -45.9150   77.6960 C.ar  136  TRP136      0.0810
     91  CE3       25.1300  -47.5720   76.6980 C.ar  136  TRP136      0.0012
     92  CZ2       22.6360  -46.8490   77.8520 C.ar  136  TRP136      0.0191
     93  CZ3       24.1060  -48.5000   76.8550 C.ar  136  TRP136      0.0001
     94  CH2       22.8730  -48.1310   77.4280 C.ar  136  TRP136      0.0015
     95  N         32.0080  -37.6190   78.2500 N.3   161  VAL161     -0.1231
     96  CA        30.7630  -37.8510   77.5320 C.3   161  VAL161      0.1692
     97  C         29.8190  -36.6840   77.8080 C.2   161  VAL161      0.2592
     98  O         30.1390  -35.7850   78.5930 O.2   161  VAL161     -0.2718
     99  CB        30.0730  -39.1600   77.9940 C.3   161  VAL161      0.0266
    100  CG1       30.9380  -40.3740   77.6390 C.3   161  VAL161      0.0020
    101  CG2       29.8230  -39.1150   79.4930 C.3   161  VAL161      0.0020
    102  N         28.6600  -36.6910   77.1600 N.am  162  ASP162     -0.1960
    103  CA        27.6890  -35.6280   77.3730 C.3   162  ASP162      0.1840
    104  C         26.3830  -36.1990   77.9120 C.2   162  ASP162      0.2622
    105  O         25.3500  -35.5400   77.8640 O.2   162  ASP162     -0.2715
    106  CB        27.4270  -34.8650   76.0670 C.3   162  ASP162      0.1450
    107  CG        26.8420  -35.7450   74.9700 C.2   162  ASP162      0.3671
    108  OD1       26.6660  -36.9620   75.1910 O.co2 162  ASP162     -0.2456
    109  OD2       26.5600  -35.2100   73.8740 O.co2 162  ASP162     -0.2456
    110  N         26.4300  -37.4170   78.4440 N.am  163  TRP163     -0.1974
    111  CA        25.2180  -38.0410   78.9610 C.3   163  TRP163      0.1640
    112  C         25.4410  -38.9940   80.1330 C.2   163  TRP163      0.2290
    113  O         26.1810  -39.9760   80.0270 O.2   163  TRP163     -0.2864
    114  CB        24.5050  -38.7770   77.8250 C.3   163  TRP163      0.0576
    115  CG        23.1600  -39.3280   78.1900 C.ar  163  TRP163      0.0006
    116  CD1       22.8430  -40.6380   78.4220 C.ar  163  TRP163      0.0946
    117  CD2       21.9380  -38.5900   78.3290 C.ar  163  TRP163      0.0152
    118  NE1       21.5010  -40.7610   78.6910 N.ar  163  TRP163     -0.2442
    119  CE2       20.9210  -39.5210   78.6410 C.ar  163  TRP163      0.0810
    120  CE3       21.6040  -37.2330   78.2180 C.ar  163  TRP163      0.0012
    121  CZ2       19.5880  -39.1370   78.8440 C.ar  163  TRP163      0.0191
    122  CZ3       20.2750  -36.8510   78.4200 C.ar  163  TRP163      0.0001
    123  CH2       19.2860  -37.8040   78.7290 C.ar  163  TRP163      0.0015
    124  N         23.6480  -41.5810   82.1620 N.3   165  GLN165     -0.1245
    125  CA        22.4650  -42.4360   82.1170 C.3   165  GLN165      0.1566
    126  C         21.6900  -42.5350   83.4340 C.2   165  GLN165      0.2260
    127  O         20.5190  -42.9180   83.4350 O.2   165  GLN165     -0.2867
    128  CB        22.8520  -43.8430   81.6430 C.3   165  GLN165      0.0367
    129  CG        21.6680  -44.7170   81.2460 C.3   165  GLN165      0.0905
    130  CD        20.7810  -44.0720   80.1890 C.2   165  GLN165      0.2608
    131  OE1       21.2440  -43.6970   79.1090 O.2   165  GLN165     -0.2717
    132  NE2       19.4950  -43.9420   80.4990 N.am  165  GLN165     -0.0878
    133  N         33.0540  -33.3020   71.5150 N.3   197  LEU197     -0.1231
    134  CA        32.0650  -32.9630   70.4970 C.3   197  LEU197      0.1693
    135  C         30.7490  -33.7110   70.7020 C.2   197  LEU197      0.2592
    136  O         29.6920  -33.0970   70.8490 O.2   197  LEU197     -0.2718
    137  CB        32.6030  -33.2700   69.0940 C.3   197  LEU197      0.0284
    138  CG        31.5920  -33.0620   67.9540 C.3   197  LEU197      0.0019
    139  CD1       31.1950  -31.5910   67.8730 C.3   197  LEU197      0.0001
    140  CD2       32.1920  -33.5320   66.6320 C.3   197  LEU197      0.0001
    141  N         30.8230  -35.0370   70.7190 N.am  198  MET198     -0.1965
    142  CA        29.6350  -35.8750   70.8780 C.3   198  MET198      0.1736
    143  C         30.0270  -37.2810   71.3060 C.2   198  MET198      0.2616
    144  O         31.2090  -37.6300   71.2970 O.2   198  MET198     -0.2715
    145  CB        28.8730  -35.9620   69.5530 C.3   198  MET198      0.0427
    146  CG        29.7210  -36.5000   68.4000 C.3   198  MET198      0.0599
    147  SD        28.7990  -36.7280   66.8600 S.3   198  MET198     -0.1393
    148  CE        28.8360  -35.0410   66.2070 C.3   198  MET198      0.0692
    149  N         29.0270  -38.0800   71.6800 N.am  199  TYR199     -0.1960
    150  CA        29.2510  -39.4610   72.0980 C.3   199  TYR199      0.1771
    151  C         30.3640  -39.5980   73.1420 C.2   199  TYR199      0.2619
    152  O         30.5210  -38.7290   74.0030 O.2   199  TYR199     -0.2715
    153  CB        29.5560  -40.3160   70.8620 C.3   199  TYR199      0.0574
    154  CG        28.3400  -40.5790   69.9870 C.ar  199  TYR199     -0.0198
    155  CD1       27.2700  -41.3350   70.4660 C.ar  199  TYR199     -0.0009
    156  CD2       28.2640  -40.0870   68.6800 C.ar  199  TYR199     -0.0009
    157  CE1       26.1570  -41.6010   69.6740 C.ar  199  TYR199      0.0417
    158  CE2       27.1460  -40.3470   67.8750 C.ar  199  TYR199      0.0417
    159  CZ        26.0980  -41.1080   68.3830 C.ar  199  TYR199      0.1957
    160  OH        24.9920  -41.3950   67.6060 O.3   199  TYR199     -0.2866
    161  N         31.1150  -40.6970   73.0890 N.am  200  ALA200     -0.1977
    162  CA        32.2130  -40.9130   74.0310 C.3   200  ALA200      0.1597
    163  C         33.4980  -40.4220   73.3740 C.2   200  ALA200      0.2287
    164  O         33.9660  -40.9920   72.3900 O.2   200  ALA200     -0.2864
    165  CB        32.3270  -42.3890   74.3880 C.3   200  ALA200      0.0319
    166  N         37.5690  -37.2040   59.5020 N.3   232  ASP232     -0.1239
    167  CA        36.4670  -36.5620   60.2100 C.3   232  ASP232      0.1674
    168  C         36.8100  -35.7980   61.4960 C.2   232  ASP232      0.2266
    169  O         37.5950  -36.2630   62.3210 O.2   232  ASP232     -0.2867
    170  CB        35.4230  -37.6370   60.5440 C.3   232  ASP232      0.1410
    171  CG        34.1500  -37.0670   61.1330 C.2   232  ASP232      0.3668
    172  OD1       33.4060  -36.3960   60.3910 O.co2 232  ASP232     -0.2456
    173  OD2       33.8840  -37.2960   62.3350 O.co2 232  ASP232     -0.2456
    174  N         27.6240  -33.2930   52.9540 N.3   328  HIS328     -0.1226
    175  CA        26.5430  -33.8600   53.7600 C.3   328  HIS328      0.1752
    176  C         26.1550  -33.0460   54.9940 C.2   328  HIS328      0.2596
    177  O         25.0830  -33.2570   55.5680 O.2   328  HIS328     -0.2718
    178  CB        26.9040  -35.2840   54.1860 C.3   328  HIS328      0.0759
    179  CG        28.1680  -35.3670   54.9800 C.ar  328  HIS328      0.0818
    180  ND1       29.4070  -35.1170   54.4310 N.ar  328  HIS328     -0.2268
    181  CD2       28.3800  -35.6260   56.2910 C.ar  328  HIS328      0.1154
    182  CE1       30.3290  -35.2150   55.3730 C.ar  328  HIS328      0.1986
    183  NE2       29.7320  -35.5240   56.5100 N.ar  328  HIS328     -0.2212
    184  N         27.0200  -32.1250   55.4120 N.am  329  ASP329     -0.1974
    185  CA        26.7170  -31.2940   56.5720 C.3   329  ASP329      0.1709
    186  C         26.1190  -29.9490   56.1710 C.2   329  ASP329      0.2293
    187  O         25.3940  -29.3340   56.9570 O.2   329  ASP329     -0.2864
    188  CB        27.9710  -31.0380   57.4160 C.3   329  ASP329      0.1436
    189  CG        28.4010  -32.2500   58.2120 C.2   329  ASP329      0.3671
    190  OD1       27.5280  -32.9140   58.8090 O.co2 329  ASP329     -0.2456
    191  OD2       29.6140  -32.5320   58.2520 O.co2 329  ASP329     -0.2456
    192  N         20.5180  -30.2000   57.4280 N.3   334  GLU334     -0.1231
    193  CA        21.6040  -30.7300   58.2400 C.3   334  GLU334      0.1699
    194  C         22.2730  -29.7390   59.1870 C.2   334  GLU334      0.2592
    195  O         22.0420  -28.5330   59.1170 O.2   334  GLU334     -0.2718
    196  CB        22.6330  -31.4310   57.3530 C.3   334  GLU334      0.0402
    197  CG        22.1550  -32.8100   56.9130 C.3   334  GLU334      0.1161
    198  CD        21.6560  -33.6400   58.0880 C.2   334  GLU334      0.3649
    199  OE1       20.4320  -33.8640   58.1930 O.co2 334  GLU334     -0.2457
    200  OE2       22.4890  -34.0540   58.9180 O.co2 334  GLU334     -0.2457
    201  N         23.0890  -30.2910   60.0830 N.am  335  ALA335     -0.1980
    202  CA        23.7990  -29.5570   61.1280 C.3   335  ALA335      0.1597
    203  C         24.4360  -28.2190   60.7630 C.2   335  ALA335      0.2287
    204  O         24.3300  -27.2530   61.5190 O.2   335  ALA335     -0.2864
    205  CB        24.8530  -30.4700   61.7570 C.3   335  ALA335      0.0319
@<TRIPOS>BOND
     1   174   175    1
     2     1     2    1
     3   175   178    1
     4   175   176    1
     5     3     2    1
     6     3     4    2
     7   178   179    1
     8     2     5    1
     9   180   179   ar
    10   180   182   ar
    11   179   181   ar
    12   176   184   am
    13   176   177    2
    14     5     6    1
    15   182   183   ar
    16   184   185    1
    17   186   185    1
    18   186   187    2
    19   181   183   ar
    20    45    44    1
    21     6     7   ar
    22     6     8   ar
    23   185   188    1
    24   197   196    1
    25   197   198    1
    26     7     9   ar
    27   196   193    1
    28   188   189    1
    29   192   193    1
    30     8    11   ar
    31     8    10   ar
    32    11    13   ar
    33    44    43   ar
    34    44    42   ar
    35    43    41   ar
    36   198   199   ar
    37   198   200   ar
    38   189   191   ar
    39   189   190   ar
    40   193   194    1
    41     9    10   ar
    42    10    12   ar
    43    42    40   ar
    44    29    28    2
    45    13    14   ar
    46   195   194    2
    47   194   201   am
    48    41    39   ar
    49   166   167    1
    50    28    27    1
    51    12    14   ar
    52    40    39   ar
    53   201   202    1
    54   167   170    1
    55   167   168    1
    56    39    38    1
    57   172   171   ar
    58    26    27    1
    59   170   171    1
    60   203   202    1
    61   203   204    2
    62    27    30    1
    63    34    35    1
    64   202   205    1
    65   171   173   ar
    66   168   169    2
    67    38    35    1
    68    30    31    1
    69    32    31   ar
    70    23    22    2
    71    35    36    1
    72    22    21    1
    73    31    33   ar
    74    36    46   am
    75    36    37    2
    76    25    24    1
    77    46    47    1
    78    21    24    1
    79    21    20    1
    80    20    17   am
    81    53    52    2
    82    47    48    1
    83    15    16    1
    84    48    49    2
    85    52    51    1
    86    54    51    1
    87    54    55    1
    88    17    16    1
    89    17    18    2
    90   148   147    1
    91    16    19    1
    92    51    50    1
    93   140   138    1
    94    55    56    1
    95   147   146    1
    96   160   159    1
    97   139   138    1
    98   158   159   ar
    99   158   156   ar
   100   138   137    1
   101    56    57    1
   102   159   157   ar
   103   146   145    1
   104    67    66    1
   105   156   154   ar
   106   137   134    1
   107    57    58    1
   108    71    70    2
   109    68    69    1
   110    68    61   am
   111   145   142    1
   112    60    59    1
   113    60    61    1
   114    60    63    1
   115   157   155   ar
   116    64    63    1
   117    64    65    1
   118    66    65    1
   119    70    69    1
   120    70    72   am
   121   154   155   ar
   122   154   153    1
   123    61    62    2
   124   134   135    1
   125   134   133    1
   126    73    72    1
   127    73    74    1
   128   135   141   am
   129   135   136    2
   130   141   142    1
   131   153   150    1
   132   142   143    1
   133    75    74    2
   134   144   143    2
   135   143   149   am
   136    74    76   am
   137   149   150    1
   138   150   151    1
   139   164   163    2
   140    76    77    1
   141   161   151   am
   142   161   162    1
   143   151   152    2
   144   163   162    1
   145    77    78    1
   146    77    80    1
   147    78    79    2
   148   109   107   ar
   149   162   165    1
   150   107   108   ar
   151   107   106    1
   152   106   103    1
   153    84    83    2
   154    85    86    1
   155    85    82    1
   156    91    93   ar
   157    91    88   ar
   158    93    94   ar
   159    88    86   ar
   160    88    90   ar
   161    86    87   ar
   162   102   103    1
   163   102    97   am
   164    83    82    1
   165   103   104    1
   166    94    92   ar
   167    96    97    1
   168    96    99    1
   169    96    95    1
   170   100    99    1
   171    87    89   ar
   172    90    92   ar
   173    90    89   ar
   174    82    81    1
   175    97    98    2
   176   114   115    1
   177   114   111    1
   178   105   104    2
   179   104   110   am
   180    99   101    1
   181   115   117   ar
   182   115   116   ar
   183   120   117   ar
   184   120   122   ar
   185   117   119   ar
   186   122   123   ar
   187   116   118   ar
   188   110   111    1
   189   119   118   ar
   190   119   121   ar
   191   123   121   ar
   192   111   112    1
   193   131   130    2
   194   113   112    2
   195   130   132   am
   196   130   129    1
   197   129   128    1
   198   128   125    1
   199   125   124    1
   200   125   126    1
   201   126   127    2
