@<TRIPOS>MOLECULE
tmp/2d3nA04.pdb
 132 126 0 0 0
SMALL
GASTEIGER

@<TRIPOS>ATOM
      1  N         44.5610  -35.6160   32.9950 N.3     1  THR1       -0.1203
      2  CA        45.6540  -35.2350   33.9370 C.3     1  THR1        0.1994
      3  C         45.1300  -34.5540   35.2070 C.2     1  THR1        0.2618
      4  O         45.5780  -34.8700   36.3080 O.2     1  THR1       -0.2717
      5  CB        46.6820  -34.3100   33.2450 C.3     1  THR1        0.1784
      6  OG1       47.3220  -35.0270   32.1820 O.3     1  THR1       -0.2211
      7  CG2       47.7420  -33.8430   34.2350 C.3     1  THR1        0.0376
      8  N         44.1940  -33.6200   35.0590 N.am    2  ASN2       -0.1960
      9  CA        43.6270  -32.9320   36.2210 C.3     2  ASN2        0.1819
     10  C         42.8200  -33.9260   37.0530 C.2     2  ASN2        0.2621
     11  O         41.9570  -34.6180   36.5220 O.2     2  ASN2       -0.2715
     12  CB        42.7040  -31.7880   35.7850 C.3     2  ASN2        0.1195
     13  CG        43.4620  -30.5620   35.3200 C.2     2  ASN2        0.2630
     14  OD1       44.4710  -30.1790   35.9140 O.2     2  ASN2       -0.2716
     15  ND2       42.9610  -29.9190   34.2690 N.am    2  ASN2       -0.0877
     16  N         43.0980  -34.0000   38.3500 N.am    3  GLY3       -0.1954
     17  CA        42.3680  -34.9240   39.2020 C.3     3  GLY3        0.1869
     18  C         41.1150  -34.3020   39.7930 C.2     3  GLY3        0.2309
     19  O         41.0850  -33.1050   40.0580 O.2     3  GLY3       -0.2863
     20  N         38.4180  -39.0610   39.1660 N.3    36  THR36      -0.1203
     21  CA        39.6160  -39.8700   39.3470 C.3    36  THR36       0.1994
     22  C         39.7880  -40.4530   40.7440 C.2    36  THR36       0.2617
     23  O         40.6650  -41.2910   40.9680 O.2    36  THR36      -0.2717
     24  CB        40.8710  -39.0530   38.9970 C.3    36  THR36       0.1784
     25  OG1       40.8800  -37.8420   39.7620 O.3    36  THR36      -0.2211
     26  CG2       40.8790  -38.7090   37.5060 C.3    36  THR36       0.0376
     27  N         38.9650  -40.0050   41.6860 N.am   37  ALA37      -0.1979
     28  CA        39.0330  -40.5070   43.0550 C.3    37  ALA37       0.1597
     29  C         37.6650  -40.4250   43.7080 C.2    37  ALA37       0.2287
     30  O         36.9090  -39.4770   43.4830 O.2    37  ALA37      -0.2864
     31  CB        40.0460  -39.7090   43.8680 C.3    37  ALA37       0.0319
     32  N         40.8680  -44.0110   42.2260 N.3    94  GLN94      -0.1245
     33  CA        41.4440  -44.1630   43.5540 C.3    94  GLN94       0.1566
     34  C         40.3280  -44.1420   44.5930 C.2    94  GLN94       0.2260
     35  O         39.2860  -43.5180   44.3840 O.2    94  GLN94      -0.2867
     36  CB        42.4490  -43.0430   43.8220 C.3    94  GLN94       0.0367
     37  CG        43.6400  -43.0810   42.8820 C.3    94  GLN94       0.0905
     38  CD        44.6670  -42.0190   43.1930 C.2    94  GLN94       0.2608
     39  OE1       45.2320  -41.9850   44.2860 O.2    94  GLN94      -0.2717
     40  NE2       44.9200  -41.1440   42.2300 N.am   94  GLN94      -0.0878
     41  N         39.2250  -43.3200   48.5750 N.3    96  TYR96      -0.1241
     42  CA        39.5270  -42.6850   49.8540 C.3    96  TYR96       0.1605
     43  C         38.4500  -43.1070   50.8430 C.2    96  TYR96       0.2264
     44  O         37.2620  -42.9180   50.5900 O.2    96  TYR96      -0.2867
     45  CB        39.5170  -41.1550   49.7550 C.3    96  TYR96       0.0534
     46  CG        40.4500  -40.5580   48.7250 C.ar   96  TYR96      -0.0201
     47  CD1       41.6240  -41.2070   48.3460 C.ar   96  TYR96      -0.0009
     48  CD2       40.1710  -39.3150   48.1560 C.ar   96  TYR96      -0.0009
     49  CE1       42.5000  -40.6270   47.4230 C.ar   96  TYR96       0.0417
     50  CE2       41.0340  -38.7280   47.2370 C.ar   96  TYR96       0.0417
     51  CZ        42.1950  -39.3870   46.8750 C.ar   96  TYR96       0.1957
     52  OH        43.0430  -38.8010   45.9630 O.3    96  TYR96      -0.2866
     53  N         46.9640  -40.4180   50.2460 N.3   258  PHE258     -0.1241
     54  CA        46.5030  -39.0390   50.1960 C.3   258  PHE258      0.1605
     55  C         45.5720  -38.8750   51.3900 C.2   258  PHE258      0.2264
     56  O         44.8780  -39.8190   51.7680 O.2   258  PHE258     -0.2867
     57  CB        45.7020  -38.7480   48.9260 C.3   258  PHE258      0.0534
     58  CG        44.9960  -37.4180   48.9630 C.ar  258  PHE258     -0.0203
     59  CD1       45.7000  -36.2360   48.7510 C.ar  258  PHE258     -0.0042
     60  CD2       43.6400  -37.3420   49.2790 C.ar  258  PHE258     -0.0042
     61  CE1       45.0650  -34.9960   48.8570 C.ar  258  PHE258     -0.0003
     62  CE2       42.9960  -36.1070   49.3870 C.ar  258  PHE258     -0.0003
     63  CZ        43.7110  -34.9340   49.1760 C.ar  258  PHE258     -0.0000
     64  N         46.1900  -32.5280   53.2930 N.3   283  SER283     -0.1217
     65  CA        45.3440  -31.4160   52.8610 C.3   283  SER283      0.1889
     66  C         44.1300  -31.2030   53.7610 C.2   283  SER283      0.2288
     67  O         43.8610  -32.0010   54.6590 O.2   283  SER283     -0.2866
     68  CB        44.8660  -31.6490   51.4240 C.3   283  SER283      0.2089
     69  OG        45.9540  -31.7350   50.5150 O.3   283  SER283     -0.2183
     70  N         47.2780  -23.1600   48.1110 N.3   318  PRO318     -0.2102
     71  CA        46.7290  -23.9690   47.0180 C.3   318  PRO318      0.1504
     72  C         47.0980  -25.4470   47.0010 C.2   318  PRO318      0.2576
     73  O         46.2800  -26.2860   46.6290 O.2   318  PRO318     -0.2718
     74  CB        47.2140  -23.2350   45.7640 C.3   318  PRO318      0.0282
     75  CG        48.4760  -22.5800   46.2140 C.3   318  PRO318      0.0208
     76  CD        48.0900  -22.0520   47.5740 C.3   318  PRO318      0.0893
     77  N         48.3230  -25.7680   47.4000 N.am  319  SER319     -0.1953
     78  CA        48.7740  -27.1540   47.3960 C.3   319  SER319      0.1924
     79  C         48.0850  -28.0280   48.4400 C.2   319  SER319      0.2314
     80  O         48.0340  -29.2480   48.2850 O.2   319  SER319     -0.2863
     81  CB        50.2880  -27.2100   47.6130 C.3   319  SER319      0.2116
     82  OG        50.6300  -26.6600   48.8750 O.3   319  SER319     -0.2180
     83  N         44.7710  -27.4660   49.5950 N.3   321  ALA321     -0.1245
     84  CA        43.3380  -27.2230   49.6240 C.3   321  ALA321      0.1562
     85  C         42.5180  -28.1740   48.7680 C.2   321  ALA321      0.2260
     86  O         42.8580  -28.4420   47.6180 O.2   321  ALA321     -0.2867
     87  CB        43.0510  -25.7900   49.1980 C.3   321  ALA321      0.0290
     88  N         43.5540  -23.4870   38.1410 N.3   356  GLU356     -0.1231
     89  CA        44.7000  -24.3630   38.3610 C.3   356  GLU356      0.1699
     90  C         44.9950  -24.7580   39.8000 C.2   356  GLU356      0.2592
     91  O         45.6310  -25.7860   40.0370 O.2   356  GLU356     -0.2718
     92  CB        45.9600  -23.7550   37.7290 C.3   356  GLU356      0.0402
     93  CG        46.5950  -22.6250   38.5120 C.3   356  GLU356      0.1161
     94  CD        47.7790  -22.0100   37.7850 C.2   356  GLU356      0.3649
     95  OE1       48.6750  -22.7640   37.3450 O.co2 356  GLU356     -0.2457
     96  OE2       47.8140  -20.7690   37.6600 O.co2 356  GLU356     -0.2457
     97  N         44.5220  -23.9620   40.7550 N.am  357  GLN357     -0.1966
     98  CA        44.7660  -24.2280   42.1710 C.3   357  GLN357      0.1733
     99  C         43.7350  -25.1370   42.8450 C.2   357  GLN357      0.2617
    100  O         42.5550  -25.1230   42.4980 O.2   357  GLN357     -0.2715
    101  CB        44.8350  -22.9050   42.9410 C.3   357  GLN357      0.0408
    102  CG        45.7220  -21.8530   42.2860 C.3   357  GLN357      0.0908
    103  CD        44.9310  -20.8380   41.4690 C.2   357  GLN357      0.2608
    104  OE1       43.9090  -21.1660   40.8640 O.2   357  GLN357     -0.2717
    105  NE2       45.4150  -19.5990   41.4380 N.am  357  GLN357     -0.0878
    106  N         44.2040  -25.9250   43.8090 N.am  358  GLY358     -0.1940
    107  CA        43.3330  -26.8120   44.5590 C.3   358  GLY358      0.2014
    108  C         42.9690  -28.1500   43.9420 C.2   358  GLY358      0.2638
    109  O         43.1340  -28.3700   42.7380 O.2   358  GLY358     -0.2714
    110  N         42.4740  -29.0430   44.7980 N.am  359  TYR359     -0.1973
    111  CA        42.0320  -30.3880   44.4210 C.3   359  TYR359      0.1639
    112  C         40.5090  -30.3410   44.6100 C.2   359  TYR359      0.2290
    113  O         40.0090  -30.4430   45.7310 O.2   359  TYR359     -0.2864
    114  CB        42.6700  -31.4090   45.3660 C.3   359  TYR359      0.0560
    115  CG        42.4290  -32.8770   45.0460 C.ar  359  TYR359     -0.0198
    116  CD1       41.7370  -33.2760   43.9000 C.ar  359  TYR359     -0.0009
    117  CD2       42.9190  -33.8690   45.8960 C.ar  359  TYR359     -0.0009
    118  CE1       41.5410  -34.6360   43.6090 C.ar  359  TYR359      0.0417
    119  CE2       42.7310  -35.2220   45.6200 C.ar  359  TYR359      0.0417
    120  CZ        42.0430  -35.6000   44.4800 C.ar  359  TYR359      0.1957
    121  OH        41.8600  -36.9370   44.2270 O.3   359  TYR359     -0.2866
    122  N         37.4760  -29.3510   32.5500 N.3   389  ARG389     -0.1245
    123  CA        38.6250  -29.6320   33.4050 C.3   389  ARG389      0.1563
    124  C         39.5000  -30.7510   32.8430 C.2   389  ARG389      0.2260
    125  O         40.7290  -30.6680   32.8690 O.2   389  ARG389     -0.2867
    126  CB        38.1580  -30.0090   34.8110 C.3   389  ARG389      0.0307
    127  CG        39.2930  -30.3930   35.7490 C.3   389  ARG389      0.0489
    128  CD        38.7950  -30.6580   37.1620 C.3   389  ARG389      0.2205
    129  NE        39.8960  -30.9980   38.0580 N.pl3 389  ARG389     -0.0865
    130  CZ        40.8190  -30.1350   38.4710 C.cat 389  ARG389      0.5346
    131  NH1       40.7740  -28.8710   38.0750 N.pl3 389  ARG389      0.1354
    132  NH2       41.7960  -30.5390   39.2740 N.pl3 389  ARG389      0.1354
@<TRIPOS>BOND
     1     6     5    1
     2   122   123    1
     3   124   125    2
     4   124   123    1
     5     1     2    1
     6     5     2    1
     7     5     7    1
     8   123   126    1
     9     2     3    1
    10    15    13   am
    11   126   127    1
    12     8     3   am
    13     8     9    1
    14     3     4    2
    15    13    12    1
    16    13    14    2
    17   127   128    1
    18    12     9    1
    19     9    10    1
    20    11    10    2
    21    10    16   am
    22   128   129    1
    23    95    94   ar
    24    26    24    1
    25    96    94   ar
    26    92    89    1
    27    92    93    1
    28    94    93    1
    29   129   130    2
    30   131   130    1
    31    88    89    1
    32    16    17    1
    33    89    90    1
    34   130   132    1
    35    24    21    1
    36    24    25    1
    37    20    21    1
    38    17    18    1
    39    21    22    1
    40    18    19    2
    41    90    91    2
    42    90    97   am
    43    22    23    2
    44    22    27   am
    45    97    98    1
    46   104   103    2
    47   105   103   am
    48   103   102    1
    49    27    28    1
    50    98    99    1
    51    98   101    1
    52    32    33    1
    53    40    38   am
    54   102   101    1
    55   100    99    2
    56   109   108    2
    57    99   106   am
    58    37    38    1
    59    37    36    1
    60    28    29    1
    61    28    31    1
    62    38    39    2
    63    30    29    2
    64    33    36    1
    65    33    34    1
    66   118   116   ar
    67   118   120   ar
    68   106   107    1
    69   116   115   ar
    70   108   107    1
    71   108   110   am
    72   121   120    1
    73    35    34    2
    74   111   112    1
    75   111   110    1
    76   111   114    1
    77   120   119   ar
    78   112   113    2
    79   115   114    1
    80   115   117   ar
    81   119   117   ar
    82    74    75    1
    83    74    71    1
    84    52    51    1
    85    75    76    1
    86    73    72    2
    87    51    50   ar
    88    51    49   ar
    89    72    71    1
    90    72    77   am
    91    71    70    1
    92    50    48   ar
    93    78    77    1
    94    78    81    1
    95    78    79    1
    96    49    47   ar
    97    76    70    1
    98    81    82    1
    99    86    85    2
   100    48    46   ar
   101    80    79    2
   102    47    46   ar
   103    41    42    1
   104    46    45    1
   105    59    61   ar
   106    59    58   ar
   107    85    84    1
   108    61    63   ar
   109    57    58    1
   110    57    54    1
   111    58    60   ar
   112    63    62   ar
   113    87    84    1
   114    60    62   ar
   115    83    84    1
   116    45    42    1
   117    42    43    1
   118    54    53    1
   119    54    55    1
   120    69    68    1
   121    44    43    2
   122    55    56    2
   123    68    65    1
   124    65    64    1
   125    65    66    1
   126    66    67    2
