@<TRIPOS>MOLECULE
tmp/2d3qB00.pdb
 246 234 0 0 0
SMALL
GASTEIGER

@<TRIPOS>ATOM
      1  N         62.5650   -5.2750   26.9130 N.3   162  GLU162     -0.1245
      2  CA        61.6680   -5.9860   27.8080 C.3   162  GLU162      0.1567
      3  C         62.5710   -6.7710   28.7800 C.2   162  GLU162      0.2260
      4  O         63.7690   -6.9560   28.5150 O.2   162  GLU162     -0.2867
      5  CB        60.7110   -6.8980   27.0190 C.3   162  GLU162      0.0388
      6  CG        61.3690   -7.8720   26.0810 C.3   162  GLU162      0.1160
      7  CD        62.1480   -8.9400   26.8200 C.2   162  GLU162      0.3649
      8  OE1       61.5820   -9.5220   27.7710 O.co2 162  GLU162     -0.2457
      9  OE2       63.3200   -9.1990   26.4520 O.co2 162  GLU162     -0.2457
     10  N         63.5290   -9.6880   29.3720 N.3   164  PHE164     -0.1241
     11  CA        64.4170  -10.7920   29.0190 C.3   164  PHE164      0.1605
     12  C         65.6960  -10.1570   28.4650 C.2   164  PHE164      0.2264
     13  O         66.7080  -10.8330   28.2720 O.2   164  PHE164     -0.2867
     14  CB        63.7950  -11.7280   27.9770 C.3   164  PHE164      0.0534
     15  CG        62.7460  -12.6550   28.5350 C.ar  164  PHE164     -0.0203
     16  CD1       62.8760  -13.1900   29.8180 C.ar  164  PHE164     -0.0042
     17  CD2       61.6350  -13.0190   27.7660 C.ar  164  PHE164     -0.0042
     18  CE1       61.9150  -14.0740   30.3300 C.ar  164  PHE164     -0.0003
     19  CE2       60.6680  -13.9030   28.2660 C.ar  164  PHE164     -0.0003
     20  CZ        60.8090  -14.4310   29.5510 C.ar  164  PHE164     -0.0000
     21  N         65.7340   -7.9900   25.5360 N.3   166  PHE166     -0.1227
     22  CA        65.6510   -7.6300   24.1280 C.3   166  PHE166      0.1736
     23  C         64.9450   -6.3020   23.8850 C.2   166  PHE166      0.2595
     24  O         63.8950   -6.0170   24.4750 O.2   166  PHE166     -0.2718
     25  CB        64.9320   -8.7330   23.3610 C.3   166  PHE166      0.0547
     26  CG        65.6280  -10.0600   23.4190 C.ar  166  PHE166     -0.0202
     27  CD1       66.3290  -10.5390   22.3190 C.ar  166  PHE166     -0.0042
     28  CD2       65.5930  -10.8250   24.5800 C.ar  166  PHE166     -0.0042
     29  CE1       66.9880  -11.7670   22.3740 C.ar  166  PHE166     -0.0003
     30  CE2       66.2500  -12.0550   24.6470 C.ar  166  PHE166     -0.0003
     31  CZ        66.9490  -12.5270   23.5420 C.ar  166  PHE166     -0.0000
     32  N         65.5490   -5.4920   23.0170 N.am  167  LEU167     -0.1966
     33  CA        65.0020   -4.1970   22.6400 C.3   167  LEU167      0.1728
     34  C         63.6440   -4.4830   22.0310 C.2   167  LEU167      0.2616
     35  O         63.5520   -5.2420   21.0740 O.2   167  LEU167     -0.2715
     36  CB        65.8910   -3.5360   21.5880 C.3   167  LEU167      0.0311
     37  CG        65.2750   -2.3290   20.8720 C.3   167  LEU167      0.0022
     38  CD1       65.1930   -1.1330   21.8130 C.3   167  LEU167      0.0001
     39  CD2       66.1080   -1.9970   19.6490 C.3   167  LEU167      0.0001
     40  N         62.5920   -3.8750   22.5650 N.am  168  ASP168     -0.1957
     41  CA        61.2620   -4.1370   22.0350 C.3   168  ASP168      0.1840
     42  C         60.5110   -2.9330   21.4710 C.2   168  ASP168      0.2623
     43  O         60.4400   -1.8790   22.0920 O.2   168  ASP168     -0.2715
     44  CB        60.4110   -4.8230   23.1120 C.3   168  ASP168      0.1450
     45  CG        59.0100   -5.1290   22.6370 C.2   168  ASP168      0.3671
     46  OD1       58.8430   -5.3570   21.4200 O.co2 168  ASP168     -0.2456
     47  OD2       58.0800   -5.1580   23.4750 O.co2 168  ASP168     -0.2456
     48  N         59.9420   -3.1080   20.2860 N.am  169  GLY169     -0.1940
     49  CA        59.1900   -2.0360   19.6620 C.3   169  GLY169      0.2014
     50  C         59.8020   -1.6030   18.3500 C.2   169  GLY169      0.2639
     51  O         59.6820   -0.4460   17.9460 O.2   169  GLY169     -0.2714
     52  N         60.4530   -2.5380   17.6710 N.am  170  ILE170     -0.1963
     53  CA        61.1120   -2.2350   16.4150 C.3   170  ILE170      0.1727
     54  C         60.1460   -2.2660   15.2550 C.2   170  ILE170      0.2616
     55  O         59.8680   -1.2400   14.6480 O.2   170  ILE170     -0.2715
     56  CB        62.2700   -3.2330   16.1490 C.3   170  ILE170      0.0290
     57  CG1       63.3200   -3.1040   17.2570 C.3   170  ILE170      0.0022
     58  CG2       62.8690   -2.9920   14.7700 C.3   170  ILE170      0.0023
     59  CD1       64.5430   -3.9640   17.0590 C.3   170  ILE170      0.0001
     60  N         59.6200   -3.4510   14.9670 N.am  171  SER171     -0.1950
     61  CA        58.7000   -3.6500   13.8530 C.3   171  SER171      0.1924
     62  C         57.2220   -3.4160   14.1840 C.2   171  SER171      0.2314
     63  O         56.6540   -4.0730   15.0540 O.2   171  SER171     -0.2863
     64  CB        58.8970   -5.0570   13.3060 C.3   171  SER171      0.2116
     65  OG        58.3770   -5.1640   12.0030 O.3   171  SER171     -0.2180
     66  N         51.3910  -10.2450   31.2850 N.3   220  PHE220     -0.1241
     67  CA        52.3620  -11.3200   31.3130 C.3   220  PHE220      0.1605
     68  C         53.3560  -11.1370   32.4500 C.2   220  PHE220      0.2264
     69  O         53.7980  -10.0230   32.7300 O.2   220  PHE220     -0.2867
     70  CB        53.1500  -11.3620   30.0120 C.3   220  PHE220      0.0534
     71  CG        52.3260  -11.6760   28.8050 C.ar  220  PHE220     -0.0203
     72  CD1       51.5820  -12.8510   28.7420 C.ar  220  PHE220     -0.0042
     73  CD2       52.3280  -10.8190   27.7080 C.ar  220  PHE220     -0.0042
     74  CE1       50.8550  -13.1670   27.6120 C.ar  220  PHE220     -0.0003
     75  CE2       51.6030  -11.1290   26.5690 C.ar  220  PHE220     -0.0003
     76  CZ        50.8650  -12.3030   26.5210 C.ar  220  PHE220     -0.0000
     77  N         56.9750  -12.4990   33.4530 N.3   222  GLN222     -0.1245
     78  CA        58.1160  -13.2420   32.9320 C.3   222  GLN222      0.1566
     79  C         58.9960  -13.8260   34.0330 C.2   222  GLN222      0.2260
     80  O         59.0630  -13.3060   35.1520 O.2   222  GLN222     -0.2867
     81  CB        58.9390  -12.3360   32.0120 C.3   222  GLN222      0.0367
     82  CG        58.0740  -11.4920   31.0880 C.3   222  GLN222      0.0905
     83  CD        58.8730  -10.5420   30.2200 C.2   222  GLN222      0.2608
     84  OE1       59.6400  -10.9800   29.3600 O.2   222  GLN222     -0.2717
     85  NE2       58.6990   -9.2300   30.4380 N.am  222  GLN222     -0.0878
     86  N         64.0560  -15.5410   19.7270 N.3   258  PHE258     -0.1241
     87  CA        63.3030  -14.3290   19.3920 C.3   258  PHE258      0.1605
     88  C         63.3750  -13.9610   17.9100 C.2   258  PHE258      0.2264
     89  O         62.4050  -13.4710   17.3230 O.2   258  PHE258     -0.2867
     90  CB        63.8340  -13.1500   20.2080 C.3   258  PHE258      0.0534
     91  CG        63.1510  -12.9640   21.5280 C.ar  258  PHE258     -0.0203
     92  CD1       61.9250  -12.3060   21.6040 C.ar  258  PHE258     -0.0042
     93  CD2       63.7320  -13.4370   22.7000 C.ar  258  PHE258     -0.0042
     94  CE1       61.2910  -12.1220   22.8230 C.ar  258  PHE258     -0.0003
     95  CE2       63.1040  -13.2580   23.9240 C.ar  258  PHE258     -0.0003
     96  CZ        61.8830  -12.6000   23.9880 C.ar  258  PHE258     -0.0000
     97  N         65.9170  -12.0530   16.9930 N.3   260  ARG260     -0.1245
     98  CA        66.6790  -10.8160   17.0660 C.3   260  ARG260      0.1563
     99  C         67.6600  -10.8970   18.2270 C.2   260  ARG260      0.2260
    100  O         67.4560  -11.6670   19.1740 O.2   260  ARG260     -0.2867
    101  CB        65.7570   -9.6150   17.3060 C.3   260  ARG260      0.0307
    102  CG        64.8710   -9.1930   16.1450 C.3   260  ARG260      0.0489
    103  CD        64.0780   -7.9530   16.5550 C.3   260  ARG260      0.2205
    104  NE        63.1780   -7.4850   15.5100 N.pl3 260  ARG260     -0.0865
    105  CZ        63.5670   -6.7890   14.4460 C.cat 260  ARG260      0.5346
    106  NH1       64.8490   -6.4740   14.2840 N.pl3 260  ARG260      0.1354
    107  NH2       62.6740   -6.4110   13.5370 N.pl3 260  ARG260      0.1354
    108  N         60.2420  -16.1720   17.5480 N.3   305  HIS305     -0.1226
    109  CA        59.1570  -15.2630   17.9040 C.3   305  HIS305      0.1752
    110  C         58.6490  -14.3520   16.7930 C.2   305  HIS305      0.2595
    111  O         57.5070  -14.4990   16.3360 O.2   305  HIS305     -0.2718
    112  CB        59.5450  -14.3930   19.1020 C.3   305  HIS305      0.0759
    113  CG        58.4390  -13.4930   19.5830 C.ar  305  HIS305      0.0818
    114  ND1       57.2600  -13.9750   20.1130 N.ar  305  HIS305     -0.2268
    115  CD2       58.3460  -12.1370   19.6340 C.ar  305  HIS305      0.1154
    116  CE1       56.4910  -12.9580   20.4700 C.ar  305  HIS305      0.1986
    117  NE2       57.1270  -11.8320   20.1900 N.ar  305  HIS305     -0.2212
    118  N         59.4840  -13.4100   16.3560 N.am  306  VAL306     -0.1980
    119  CA        59.0530  -12.4610   15.3350 C.3   306  VAL306      0.1595
    120  C         58.7250  -13.1350   14.0240 C.2   306  VAL306      0.2287
    121  O         57.9320  -12.6170   13.2360 O.2   306  VAL306     -0.2864
    122  CB        60.1010  -11.3600   15.0790 C.3   306  VAL306      0.0276
    123  CG1       60.4220  -10.6380   16.3690 C.3   306  VAL306      0.0022
    124  CG2       61.3460  -11.9630   14.4810 C.3   306  VAL306      0.0022
    125  N         55.0490  -14.3980   14.6780 N.3   309  THR309     -0.1203
    126  CA        54.0970  -13.3020   14.8350 C.3   309  THR309      0.1994
    127  C         53.9480  -12.4550   13.5640 C.2   309  THR309      0.2617
    128  O         52.9940  -11.6850   13.4170 O.2   309  THR309     -0.2717
    129  CB        54.5080  -12.4000   16.0050 C.3   309  THR309      0.1784
    130  OG1       55.8430  -11.9230   15.7930 O.3   309  THR309     -0.2211
    131  CG2       54.4680  -13.1770   17.3120 C.3   309  THR309      0.0376
    132  N         54.9020  -12.6050   12.6490 N.am  310  ASN310     -0.1974
    133  CA        54.8990  -11.8830   11.3770 C.3   310  ASN310      0.1688
    134  C         55.7870  -12.6390   10.3890 C.2   310  ASN310      0.2292
    135  O         56.9730  -12.3240   10.2260 O.2   310  ASN310     -0.2864
    136  CB        55.4090  -10.4540   11.5680 C.3   310  ASN310      0.1181
    137  CG        55.6390   -9.7400   10.2500 C.2   310  ASN310      0.2629
    138  OD1       54.9610  -10.0020    9.2580 O.2   310  ASN310     -0.2716
    139  ND2       56.5930   -8.8250   10.2390 N.am  310  ASN310     -0.0877
    140  N         56.0030  -12.6590    7.2550 N.3   312  ARG312     -0.1245
    141  CA        56.5360  -11.9310    6.1220 C.3   312  ARG312      0.1563
    142  C         56.4590  -12.8360    4.8800 C.2   312  ARG312      0.2260
    143  O         55.3690  -13.2770    4.4960 O.2   312  ARG312     -0.2867
    144  CB        57.9770  -11.4780    6.4020 C.3   312  ARG312      0.0307
    145  CG        58.0940  -10.6250    7.6660 C.3   312  ARG312      0.0489
    146  CD        59.3420   -9.7380    7.6990 C.3   312  ARG312      0.2205
    147  NE        59.5200   -9.1310    9.0210 N.pl3 312  ARG312     -0.0865
    148  CZ        59.9850   -7.9010    9.2480 C.cat 312  ARG312      0.5346
    149  NH1       60.3310   -7.1080    8.2440 N.pl3 312  ARG312      0.1354
    150  NH2       60.1070   -7.4580   10.4930 N.pl3 312  ARG312      0.1354
    151  N         49.1870   -5.7950   13.3460 N.3   324  ALA324     -0.1245
    152  CA        48.6040   -5.1070   14.4940 C.3   324  ALA324      0.1562
    153  C         49.5930   -4.1270   15.1320 C.2   324  ALA324      0.2260
    154  O         50.8040   -4.2270   14.9200 O.2   324  ALA324     -0.2867
    155  CB        48.1480   -6.1260   15.5260 C.3   324  ALA324      0.0290
    156  N         51.3900   -2.5130   18.4740 N.3   326  ARG326     -0.1245
    157  CA        51.7750   -2.8820   19.8300 C.3   326  ARG326      0.1563
    158  C         52.2070   -1.6210   20.5760 C.2   326  ARG326      0.2260
    159  O         52.8610   -0.7470   20.0090 O.2   326  ARG326     -0.2867
    160  CB        52.9230   -3.9010   19.7980 C.3   326  ARG326      0.0307
    161  CG        52.4770   -5.3150   19.4570 C.3   326  ARG326      0.0489
    162  CD        53.6630   -6.2460   19.4010 C.3   326  ARG326      0.2205
    163  NE        54.6240   -5.8030   18.3950 N.pl3 326  ARG326     -0.0865
    164  CZ        55.9150   -5.5880   18.6310 C.cat 326  ARG326      0.5346
    165  NH1       56.4090   -5.7770   19.8520 N.pl3 326  ARG326      0.1354
    166  NH2       56.7100   -5.1750   17.6470 N.pl3 326  ARG326      0.1354
    167  N         55.5640   -8.0770   31.4730 N.3   351  LEU351     -0.1245
    168  CA        55.2170   -7.1600   30.4010 C.3   351  LEU351      0.1561
    169  C         53.7340   -6.8870   30.3440 C.2   351  LEU351      0.2260
    170  O         52.9330   -7.8170   30.3240 O.2   351  LEU351     -0.2867
    171  CB        55.6360   -7.7350   29.0510 C.3   351  LEU351      0.0270
    172  CG        55.3220   -6.8360   27.8500 C.3   351  LEU351      0.0019
    173  CD1       56.2500   -5.6190   27.8630 C.3   351  LEU351      0.0001
    174  CD2       55.4900   -7.6210   26.5590 C.3   351  LEU351      0.0001
    175  N         51.4540   -6.1660   28.0380 N.3   353  PHE353     -0.1241
    176  CA        51.2420   -6.2510   26.5930 C.3   353  PHE353      0.1605
    177  C         49.9740   -5.5680   26.0860 C.2   353  PHE353      0.2264
    178  O         48.8910   -5.7370   26.6520 O.2   353  PHE353     -0.2867
    179  CB        51.2330   -7.7250   26.2070 C.3   353  PHE353      0.0534
    180  CG        51.1130   -7.9750   24.7390 C.ar  353  PHE353     -0.0203
    181  CD1       52.2470   -8.0120   23.9310 C.ar  353  PHE353     -0.0042
    182  CD2       49.8690   -8.2040   24.1630 C.ar  353  PHE353     -0.0042
    183  CE1       52.1420   -8.2760   22.5700 C.ar  353  PHE353     -0.0003
    184  CE2       49.7520   -8.4680   22.8070 C.ar  353  PHE353     -0.0003
    185  CZ        50.8900   -8.5050   22.0060 C.ar  353  PHE353     -0.0000
    186  N         48.0470   -4.7380   22.2640 N.3   355  GLU355     -0.1245
    187  CA        48.0380   -4.8430   20.8060 C.3   355  GLU355      0.1567
    188  C         46.6690   -4.4080   20.2870 C.2   355  GLU355      0.2260
    189  O         45.6330   -4.8270   20.8180 O.2   355  GLU355     -0.2867
    190  CB        48.3600   -6.2790   20.3950 C.3   355  GLU355      0.0388
    191  CG        48.5940   -6.4900   18.9210 C.3   355  GLU355      0.1160
    192  CD        49.1970   -7.8550   18.6360 C.2   355  GLU355      0.3649
    193  OE1       48.9250   -8.7860   19.4130 O.co2 355  GLU355     -0.2457
    194  OE2       49.9330   -8.0120   17.6390 O.co2 355  GLU355     -0.2457
    195  N         46.1220  -10.0340   17.1600 N.3   364  PHE364     -0.1241
    196  CA        46.6040  -10.7200   18.3420 C.3   364  PHE364      0.1605
    197  C         46.2500  -12.2170   18.3250 C.2   364  PHE364      0.2264
    198  O         47.1360  -13.0720   18.3140 O.2   364  PHE364     -0.2867
    199  CB        46.0120  -10.0560   19.5820 C.3   364  PHE364      0.0534
    200  CG        46.0920  -10.9000   20.8090 C.ar  364  PHE364     -0.0203
    201  CD1       47.3140  -11.2170   21.3720 C.ar  364  PHE364     -0.0042
    202  CD2       44.9410  -11.4090   21.3820 C.ar  364  PHE364     -0.0042
    203  CE1       47.3830  -12.0360   22.4880 C.ar  364  PHE364     -0.0003
    204  CE2       45.0030  -12.2230   22.4910 C.ar  364  PHE364     -0.0003
    205  CZ        46.2250  -12.5360   23.0410 C.ar  364  PHE364     -0.0000
    206  N         47.8480  -14.2990   15.5080 N.3   367  GLN367     -0.1231
    207  CA        49.2660  -14.4760   15.7600 C.3   367  GLN367      0.1698
    208  C         49.4700  -15.5130   16.8550 C.2   367  GLN367      0.2592
    209  O         50.3760  -16.3430   16.7700 O.2   367  GLN367     -0.2718
    210  CB        49.9000  -13.1570   16.1870 C.3   367  GLN367      0.0381
    211  CG        50.0990  -12.1500   15.0740 C.3   367  GLN367      0.0905
    212  CD        50.1010  -10.7320   15.5990 C.2   367  GLN367      0.2608
    213  OE1       50.3470  -10.4950   16.7850 O.2   367  GLN367     -0.2717
    214  NE2       49.8320   -9.7830   14.7280 N.am  367  GLN367     -0.0878
    215  N         48.6340  -15.4840   17.8820 N.am  368  GLN368     -0.1979
    216  CA        48.7930  -16.4430   18.9550 C.3   368  GLN368      0.1601
    217  C         48.4060  -17.8490   18.5180 C.2   368  GLN368      0.2287
    218  O         49.2620  -18.7240   18.3940 O.2   368  GLN368     -0.2864
    219  CB        47.9470  -16.0450   20.1650 C.3   368  GLN368      0.0394
    220  CG        48.1950  -16.8910   21.3970 C.3   368  GLN368      0.0908
    221  CD        49.6110  -16.7240   21.9470 C.2   368  GLN368      0.2608
    222  OE1       50.0560  -15.6050   22.2050 O.2   368  GLN368     -0.2717
    223  NE2       50.3200  -17.8370   22.1320 N.am  368  GLN368     -0.0878
    224  N         58.9660  -18.2550   22.8710 N.3   390  ILE390     -0.1231
    225  CA        58.6590  -17.1660   23.7890 C.3   390  ILE390      0.1692
    226  C         57.2150  -17.1510   24.2980 C.2   390  ILE390      0.2591
    227  O         57.0060  -17.2140   25.5120 O.2   390  ILE390     -0.2718
    228  CB        58.9950  -15.7870   23.1840 C.3   390  ILE390      0.0266
    229  CG1       60.4240  -15.7970   22.6270 C.3   390  ILE390      0.0019
    230  CG2       58.8710  -14.7130   24.2590 C.3   390  ILE390      0.0020
    231  CD1       61.4780  -16.2270   23.6310 C.3   390  ILE390      0.0001
    232  N         56.2190  -17.0590   23.4110 N.am  391  ILE391     -0.1980
    233  CA        54.8340  -17.0570   23.8920 C.3   391  ILE391      0.1595
    234  C         53.9550  -18.1840   23.3490 C.2   391  ILE391      0.2287
    235  O         52.7320  -18.1500   23.4940 O.2   391  ILE391     -0.2864
    236  CB        54.1220  -15.6950   23.6440 C.3   391  ILE391      0.0276
    237  CG1       53.5120  -15.6210   22.2340 C.3   391  ILE391      0.0022
    238  CG2       55.0940  -14.5700   23.8940 C.3   391  ILE391      0.0022
    239  CD1       54.4580  -15.7960   21.1260 C.3   391  ILE391      0.0001
    240  N         56.8730  -17.0870   29.9800 N.3   417  VAL417     -0.1245
    241  CA        55.9350  -15.9740   29.9710 C.3   417  VAL417      0.1561
    242  C         54.6350  -16.5510   30.5030 C.2   417  VAL417      0.2260
    243  O         54.0710  -17.4640   29.9100 O.2   417  VAL417     -0.2867
    244  CB        55.7300  -15.4170   28.5460 C.3   417  VAL417      0.0252
    245  CG1       54.7160  -14.2970   28.5750 C.3   417  VAL417      0.0019
    246  CG2       57.0570  -14.9040   27.9880 C.3   417  VAL417      0.0019
@<TRIPOS>BOND
     1   143   142    2
     2   142   141    1
     3   141   144    1
     4   141   140    1
     5   144   145    1
     6   145   146    1
     7   146   147    1
     8   149   148    1
     9   147   148    2
    10   148   150    1
    11   138   137    2
    12   135   134    2
    13   139   137   am
    14   137   136    1
    15   134   133    1
    16   133   136    1
    17   133   132    1
    18    65    64    1
    19   132   127   am
    20   121   120    2
    21    64    61    1
    22   151   152    1
    23   128   127    2
    24   107   105    1
    25   127   126    1
    26    61    62    1
    27    61    60    1
    28   120   119    1
    29    62    63    2
    30   106   105    1
    31   105   104    2
    32   124   122    1
    33   152   153    1
    34   152   155    1
    35    55    54    2
    36   125   126    1
    37   214   212   am
    38    58    56    1
    39   126   129    1
    40   154   153    2
    41    60    54   am
    42   211   212    1
    43   211   210    1
    44   122   119    1
    45   122   123    1
    46    54    53    1
    47   119   118    1
    48   206   207    1
    49   104   103    1
    50   212   213    2
    51   207   210    1
    52   207   208    1
    53   130   129    1
    54   129   131    1
    55   102   103    1
    56   102   101    1
    57    56    53    1
    58    56    57    1
    59   111   110    2
    60   118   110   am
    61    53    52    1
    62   209   208    2
    63   110   109    1
    64   208   215   am
    65    97    98    1
    66    59    57    1
    67    98   101    1
    68    98    99    1
    69   195   196    1
    70    89    88    2
    71   108   109    1
    72   194   192   ar
    73   166   164    1
    74    52    50   am
    75   215   216    1
    76   109   112    1
    77    88    87    1
    78    51    50    2
    79    99   100    2
    80   198   197    2
    81   197   196    1
    82   196   199    1
    83    50    49    1
    84   218   217    2
    85   163   164    2
    86   163   162    1
    87   156   157    1
    88   217   216    1
    89   164   165    1
    90   192   191    1
    91   192   193   ar
    92   191   190    1
    93   216   219    1
    94   112   113    1
    95    87    86    1
    96    87    90    1
    97   162   161    1
    98   161   160    1
    99   199   200    1
   100   113   115   ar
   101   113   114   ar
   102   115   117   ar
   103    39    37    1
   104    49    48    1
   105   160   157    1
   106   157   158    1
   107   159   158    2
   108   114   116   ar
   109   219   220    1
   110   117   116   ar
   111    90    91    1
   112    48    42   am
   113   188   187    1
   114   188   189    2
   115   190   187    1
   116   187   186    1
   117   200   201   ar
   118   200   202   ar
   119    37    36    1
   120    37    38    1
   121    35    34    2
   122   239   237    1
   123   201   203   ar
   124   202   204   ar
   125   220   221    1
   126    46    45   ar
   127    42    41    1
   128    42    43    2
   129    91    92   ar
   130    91    93   ar
   131    36    33    1
   132    92    94   ar
   133   221   223   am
   134   221   222    2
   135   185   183   ar
   136   185   184   ar
   137    34    40   am
   138    34    33    1
   139    41    40    1
   140    41    44    1
   141   237   236    1
   142    27    29   ar
   143    27    26   ar
   144    29    31   ar
   145   203   205   ar
   146   204   205   ar
   147   183   181   ar
   148   229   228    1
   149   229   231    1
   150    45    44    1
   151    45    47   ar
   152    33    32    1
   153    93    95   ar
   154   184   182   ar
   155    94    96   ar
   156   224   225    1
   157    32    23   am
   158   228   225    1
   159   228   230    1
   160   234   235    2
   161   234   233    1
   162    25    26    1
   163    25    22    1
   164   232   233    1
   165   232   226   am
   166    26    28   ar
   167    31    30   ar
   168   236   233    1
   169   236   238    1
   170   225   226    1
   171    23    22    1
   172    23    24    2
   173    95    96   ar
   174   181   180   ar
   175    22    21    1
   176   182   180   ar
   177   226   227    2
   178    28    30   ar
   179   180   179    1
   180     6     7    1
   181     6     5    1
   182   177   176    1
   183   177   178    2
   184   179   176    1
   185     9     7   ar
   186    76    75   ar
   187    76    74   ar
   188   174   172    1
   189    75    73   ar
   190   176   175    1
   191     7     8   ar
   192     1     2    1
   193     5     2    1
   194    74    72   ar
   195    73    71   ar
   196    17    19   ar
   197    17    15   ar
   198     2     3    1
   199   172   173    1
   200   172   171    1
   201    14    15    1
   202    14    11    1
   203   246   244    1
   204    19    20   ar
   205    13    12    2
   206    12    11    1
   207     4     3    2
   208    15    16   ar
   209   244   245    1
   210   244   241    1
   211    72    71   ar
   212    71    70    1
   213    11    10    1
   214   171   168    1
   215    84    83    2
   216    20    18   ar
   217    16    18   ar
   218   243   242    2
   219   241   240    1
   220   241   242    1
   221    70    67    1
   222    83    85   am
   223    83    82    1
   224   170   169    2
   225   169   168    1
   226   168   167    1
   227    82    81    1
   228    66    67    1
   229    67    68    1
   230    81    78    1
   231    68    69    2
   232    78    77    1
   233    78    79    1
   234    79    80    2
