@<TRIPOS>MOLECULE
tmp/2d3sA02.pdb
 143 140 0 0 0
SMALL
GASTEIGER

@<TRIPOS>ATOM
      1  N        135.5600    7.6010    5.0730 N.3    84  HIS84      -0.1241
      2  CA       134.3150    7.9720    5.7250 C.3    84  HIS84       0.1621
      3  C        133.3440    6.7930    5.8120 C.2    84  HIS84       0.2264
      4  O        132.9980    6.1830    4.8020 O.2    84  HIS84      -0.2867
      5  CB       133.6630    9.1630    5.0000 C.3    84  HIS84       0.0745
      6  CG       133.6460    9.0420    3.5060 C.ar   84  HIS84       0.0817
      7  ND1      134.0830   10.0530    2.6770 N.ar   84  HIS84      -0.2268
      8  CD2      133.2170    8.0480    2.6910 C.ar   84  HIS84       0.1154
      9  CE1      133.9250    9.6870    1.4160 C.ar   84  HIS84       0.1986
     10  NE2      133.4010    8.4740    1.3970 N.ar   84  HIS84      -0.2212
     11  N        129.8950    4.6410    6.1650 N.3    86  ALA86      -0.1231
     12  CA       128.5940    4.8460    5.5390 C.3    86  ALA86       0.1694
     13  C        127.8070    3.5390    5.5790 C.2    86  ALA86       0.2592
     14  O        128.4150    2.4700    5.6490 O.2    86  ALA86      -0.2718
     15  CB       128.7880    5.3050    4.0940 C.3    86  ALA86       0.0304
     16  N        126.4730    3.6020    5.5540 N.am   87  ASP87      -0.1974
     17  CA       125.7060    4.8500    5.4990 C.3    87  ASP87       0.1709
     18  C        124.8880    5.1080    6.7670 C.2    87  ASP87       0.2293
     19  O        124.6690    6.2600    7.1650 O.2    87  ASP87      -0.2864
     20  CB       124.7620    4.8460    4.2940 C.3    87  ASP87       0.1436
     21  CG       125.4200    5.4090    3.0470 C.2    87  ASP87       0.3671
     22  OD1      125.9600    4.6160    2.2400 O.co2  87  ASP87      -0.2456
     23  OD2      125.4160    6.6520    2.8910 O.co2  87  ASP87      -0.2456
     24  N        116.4800    2.3040   -2.9040 N.3   102  GLU102     -0.1231
     25  CA       117.8690    2.6790   -3.1680 C.3   102  GLU102      0.1699
     26  C        118.7680    2.5490   -1.9310 C.2   102  GLU102      0.2593
     27  O        118.3920    2.9420   -0.8290 O.2   102  GLU102     -0.2718
     28  CB       117.9180    4.1290   -3.6630 C.3   102  GLU102      0.0402
     29  CG       118.8510    4.3710   -4.8360 C.3   102  GLU102      0.1161
     30  CD       118.2550    3.9080   -6.1510 C.2   102  GLU102      0.3649
     31  OE1      117.8950    2.7140   -6.2560 O.co2 102  GLU102     -0.2457
     32  OE2      118.1440    4.7420   -7.0790 O.co2 102  GLU102     -0.2457
     33  N        119.9620    2.0040   -2.1280 N.am  103  GLY103     -0.1942
     34  CA       120.9000    1.8490   -1.0320 C.3   103  GLY103      0.2014
     35  C        121.5640    3.1830   -0.7660 C.2   103  GLY103      0.2639
     36  O        120.9560    4.2290   -0.9790 O.2   103  GLY103     -0.2714
     37  N        122.8050    3.1570   -0.3010 N.am  104  GLY104     -0.1939
     38  CA       123.5060    4.3930   -0.0200 C.3   104  GLY104      0.2014
     39  C        122.7710    5.3020    0.9470 C.2   104  GLY104      0.2639
     40  O        122.1410    4.8310    1.9000 O.2   104  GLY104     -0.2714
     41  N        122.8520    6.6070    0.7000 N.am  105  GLY105     -0.1939
     42  CA       122.2020    7.5830    1.5600 C.3   105  GLY105      0.2014
     43  C        120.6980    7.4440    1.6860 C.2   105  GLY105      0.2638
     44  O        120.0710    8.1980    2.4280 O.2   105  GLY105     -0.2714
     45  N        120.1080    6.4970    0.9630 N.am  106  TYR106     -0.1973
     46  CA       118.6650    6.2860    1.0400 C.3   106  TYR106      0.1639
     47  C        118.2930    5.1040    1.9420 C.2   106  TYR106      0.2290
     48  O        117.1180    4.7300    2.0540 O.2   106  TYR106     -0.2864
     49  CB       118.0840    6.0970   -0.3560 C.3   106  TYR106      0.0560
     50  CG       118.1990    7.3450   -1.1960 C.ar  106  TYR106     -0.0198
     51  CD1      117.4990    8.5040   -0.8580 C.ar  106  TYR106     -0.0009
     52  CD2      119.0440    7.3840   -2.3050 C.ar  106  TYR106     -0.0009
     53  CE1      117.6420    9.6710   -1.6030 C.ar  106  TYR106      0.0417
     54  CE2      119.1960    8.5450   -3.0560 C.ar  106  TYR106      0.0417
     55  CZ       118.4960    9.6810   -2.7000 C.ar  106  TYR106      0.1957
     56  OH       118.6610   10.8290   -3.4390 O.3   106  TYR106     -0.2866
     57  N        126.8100    9.0490    7.4670 N.3   126  PHE126     -0.1227
     58  CA       127.4820    9.6620    6.3270 C.3   126  PHE126      0.1736
     59  C        126.8030   10.9590    5.9080 C.2   126  PHE126      0.2595
     60  O        125.5920   11.0110    5.7640 O.2   126  PHE126     -0.2718
     61  CB       127.5000    8.7050    5.1350 C.3   126  PHE126      0.0547
     62  CG       128.1560    9.2860    3.9150 C.ar  126  PHE126     -0.0202
     63  CD1      129.5470    9.2810    3.7870 C.ar  126  PHE126     -0.0042
     64  CD2      127.3890    9.8990    2.9220 C.ar  126  PHE126     -0.0042
     65  CE1      130.1700    9.8820    2.6840 C.ar  126  PHE126     -0.0003
     66  CE2      127.9990   10.5050    1.8150 C.ar  126  PHE126     -0.0003
     67  CZ       129.3920   10.4970    1.6950 C.ar  126  PHE126     -0.0000
     68  N        127.5820   12.0080    5.6870 N.am  127  ARG127     -0.1966
     69  CA       126.9800   13.2740    5.2980 C.3   127  ARG127      0.1729
     70  C        126.6720   13.4080    3.8090 C.2   127  ARG127      0.2616
     71  O        127.5610   13.6410    3.0030 O.2   127  ARG127     -0.2715
     72  CB       127.8670   14.4340    5.7430 C.3   127  ARG127      0.0348
     73  CG       127.1510   15.7570    5.6940 C.3   127  ARG127      0.0492
     74  CD       127.9470   16.8380    6.3820 C.3   127  ARG127      0.2205
     75  NE       127.1630   18.0630    6.4820 N.pl3 127  ARG127     -0.0865
     76  CZ       127.6100   19.2010    7.0000 C.cat 127  ARG127      0.5346
     77  NH1      128.8490   19.2800    7.4710 N.pl3 127  ARG127      0.1354
     78  NH2      126.8100   20.2580    7.0510 N.pl3 127  ARG127      0.1354
     79  N        125.4070   13.2430    3.4490 N.am  128  ASN128     -0.1958
     80  CA       124.9940   13.3880    2.0620 C.3   128  ASN128      0.1819
     81  C        124.7990   14.8830    1.8230 C.2   128  ASN128      0.2622
     82  O        124.8020   15.6610    2.7750 O.2   128  ASN128     -0.2715
     83  CB       123.6950   12.6220    1.8170 C.3   128  ASN128      0.1195
     84  CG       123.9410   11.1770    1.4260 C.2   128  ASN128      0.2630
     85  OD1      124.1010   10.8530    0.2430 O.2   128  ASN128     -0.2716
     86  ND2      123.9900   10.3020    2.4150 N.am  128  ASN128     -0.0877
     87  N        124.6370   15.2910    0.5670 N.am  129  THR129     -0.1937
     88  CA       124.4660   16.7140    0.2700 C.3   129  THR129      0.2028
     89  C        123.3840   17.3470    1.1370 C.2   129  THR129      0.2642
     90  O        123.4960   18.5080    1.5350 O.2   129  THR129     -0.2714
     91  CB       124.0990   16.9630   -1.2250 C.3   129  THR129      0.1808
     92  OG1      122.8530   16.3240   -1.5350 O.3   129  THR129     -0.2208
     93  CG2      125.1970   16.4280   -2.1430 C.3   129  THR129      0.0379
     94  N        122.3570   16.5630    1.4490 N.am  130  TRP130     -0.1973
     95  CA       121.2190   17.0280    2.2400 C.3   130  TRP130      0.1640
     96  C        121.3060   16.8510    3.7570 C.2   130  TRP130      0.2290
     97  O        120.2970   17.0260    4.4350 O.2   130  TRP130     -0.2864
     98  CB       119.9560   16.3200    1.7550 C.3   130  TRP130      0.0576
     99  CG       120.0070   14.8490    2.0150 C.ar  130  TRP130      0.0006
    100  CD1      119.8590   14.2230    3.2230 C.ar  130  TRP130      0.0946
    101  CD2      120.2820   13.8170    1.0610 C.ar  130  TRP130      0.0152
    102  NE1      120.0270   12.8700    3.0790 N.ar  130  TRP130     -0.2442
    103  CE2      120.2870   12.5900    1.7640 C.ar  130  TRP130      0.0810
    104  CE3      120.5260   13.8080   -0.3200 C.ar  130  TRP130      0.0012
    105  CZ2      120.5260   11.3660    1.1340 C.ar  130  TRP130      0.0191
    106  CZ3      120.7650   12.5870   -0.9490 C.ar  130  TRP130      0.0001
    107  CH2      120.7620   11.3830   -0.2180 C.ar  130  TRP130      0.0015
    108  N        128.4330    1.9270    2.0240 N.3   211  GLY211     -0.1210
    109  CA       128.8530    2.7150    0.8740 C.3   211  GLY211      0.1956
    110  C        128.4220    2.2530   -0.5080 C.2   211  GLY211      0.2611
    111  O        128.6080    1.0960   -0.8830 O.2   211  GLY211     -0.2717
    112  N        127.8420    3.1670   -1.2750 N.am  212  ASP212     -0.1973
    113  CA       127.4020    2.8520   -2.6290 C.3   212  ASP212      0.1709
    114  C        128.6030    2.9340   -3.5830 C.2   212  ASP212      0.2293
    115  O        129.4680    3.8000   -3.4260 O.2   212  ASP212     -0.2864
    116  CB       126.3340    3.8500   -3.0700 C.3   212  ASP212      0.1436
    117  CG       125.7310    3.5030   -4.4100 C.2   212  ASP212      0.3671
    118  OD1      125.0050    2.4860   -4.4910 O.co2 212  ASP212     -0.2456
    119  OD2      125.9880    4.2470   -5.3790 O.co2 212  ASP212     -0.2456
    120  N        129.0360    4.1390   -6.4770 N.3   214  SER214     -0.1202
    121  CA       129.1990    5.4650   -7.0710 C.3   214  SER214      0.2020
    122  C        130.1660    6.3440   -6.2820 C.2   214  SER214      0.2619
    123  O        130.7250    7.2970   -6.8220 O.2   214  SER214     -0.2717
    124  CB       127.8420    6.1710   -7.1870 C.3   214  SER214      0.2103
    125  OG       127.3020    6.4820   -5.9120 O.3   214  SER214     -0.2182
    126  N        130.3660    6.0190   -5.0100 N.am  215  GLY215     -0.1956
    127  CA       131.2720    6.7960   -4.1810 C.3   215  GLY215      0.1869
    128  C        132.7320    6.4670   -4.4400 C.2   215  GLY215      0.2309
    129  O        133.6280    7.1630   -3.9580 O.2   215  GLY215     -0.2863
    130  N        134.6090    4.4140   -3.1770 N.3   217  GLN217     -0.1245
    131  CA       135.3570    4.1640   -1.9460 C.3   217  GLN217      0.1566
    132  C        134.8910    2.8860   -1.2590 C.2   217  GLN217      0.2260
    133  O        133.7800    2.8290   -0.7280 O.2   217  GLN217     -0.2867
    134  CB       135.2090    5.3500   -0.9870 C.3   217  GLN217      0.0367
    135  CG       135.8750    6.6220   -1.4820 C.3   217  GLN217      0.0905
    136  CD       137.3870    6.5650   -1.3780 C.2   217  GLN217      0.2608
    137  OE1      137.9920    5.5040   -1.5250 O.2   217  GLN217     -0.2717
    138  NE2      138.0070    7.7130   -1.1360 N.am  217  GLN217     -0.0878
    139  N        134.0980    2.9800    2.5920 N.3   220  ALA220     -0.1245
    140  CA       132.8510    3.5890    3.0520 C.3   220  ALA220      0.1562
    141  C        131.8650    2.5040    3.5020 C.2   220  ALA220      0.2260
    142  O        130.8440    2.2740    2.8610 O.2   220  ALA220     -0.2867
    143  CB       132.2470    4.4220    1.9430 C.3   220  ALA220      0.0290
@<TRIPOS>BOND
     1   124   121    1
     2   124   125    1
     3    32    30   ar
     4   121   120    1
     5   121   122    1
     6   123   122    2
     7   122   126   am
     8    31    30   ar
     9    30    29    1
    10   119   117   ar
    11   126   127    1
    12    29    28    1
    13   118   117   ar
    14   128   127    1
    15   128   129    2
    16   117   116    1
    17    28    25    1
    18   114   115    2
    19   114   113    1
    20    56    55    1
    21   130   131    1
    22    25    24    1
    23    25    26    1
    24   116   113    1
    25    54    55   ar
    26    54    52   ar
    27    55    53   ar
    28   113   112    1
    29    52    50   ar
    30    93    91    1
    31    33    26   am
    32    33    34    1
    33   131   132    1
    34   131   134    1
    35    26    27    2
    36    53    51   ar
    37    92    91    1
    38   137   136    2
    39   135   136    1
    40   135   134    1
    41   136   138   am
    42   112   110   am
    43   132   133    2
    44    91    88    1
    45    50    51   ar
    46    50    49    1
    47    34    35    1
    48    36    35    2
    49   106   104   ar
    50   106   107   ar
    51   111   110    2
    52    35    37   am
    53   110   109    1
    54    49    46    1
    55   104   101   ar
    56    37    38    1
    57   107   105   ar
    58    38    39    1
    59    85    84    2
    60    88    87    1
    61    88    89    1
    62    87    81   am
    63    41    39   am
    64    41    42    1
    65   109   108    1
    66    39    40    2
    67    45    46    1
    68    45    43   am
    69    46    47    1
    70   101   103   ar
    71   101    99   ar
    72   105   103   ar
    73    89    94   am
    74    89    90    2
    75    10     9   ar
    76    10     8   ar
    77     9     7   ar
    78    84    83    1
    79    84    86   am
    80    94    95    1
    81    42    43    1
    82    43    44    2
    83    67    66   ar
    84    67    65   ar
    85    98    99    1
    86    98    95    1
    87   103   102   ar
    88    66    64   ar
    89    83    80    1
    90    81    80    1
    91    81    82    2
    92    47    48    2
    93   143   140    1
    94    99   100   ar
    95    80    79    1
    96    95    96    1
    97    22    21   ar
    98   139   140    1
    99     7     6   ar
   100    65    63   ar
   101     8     6   ar
   102   142   141    2
   103    23    21   ar
   104    64    62   ar
   105    71    70    2
   106    21    20    1
   107   140   141    1
   108   102   100   ar
   109    79    70   am
   110     6     5    1
   111    96    97    2
   112    63    62   ar
   113    70    69    1
   114    62    61    1
   115    15    12    1
   116    20    17    1
   117     4     3    2
   118     5     2    1
   119     1     2    1
   120    61    58    1
   121    69    68    1
   122    69    72    1
   123    17    16    1
   124    17    18    1
   125    12    13    1
   126    12    11    1
   127    16    13   am
   128    13    14    2
   129    68    59   am
   130    73    72    1
   131    73    74    1
   132     2     3    1
   133    60    59    2
   134    59    58    1
   135    58    57    1
   136    74    75    1
   137    75    76    2
   138    18    19    2
   139    76    78    1
   140    76    77    1
