@<TRIPOS>MOLECULE
tmp/2d3uB00.pdb
 151 146 0 0 0
SMALL
GASTEIGER

@<TRIPOS>ATOM
      1  N         -8.3690   36.5840  -23.6830 N.3   414  LEU414     -0.1245
      2  CA        -9.1410   36.0370  -24.7870 C.3   414  LEU414      0.1561
      3  C        -10.6300   36.4060  -24.6310 C.2   414  LEU414      0.2260
      4  O        -11.2640   36.9150  -25.5660 O.2   414  LEU414     -0.2867
      5  CB        -8.9770   34.5060  -24.8260 C.3   414  LEU414      0.0270
      6  CG        -9.8720   33.7260  -25.7870 C.3   414  LEU414      0.0019
      7  CD1       -9.5560   34.1200  -27.2240 C.3   414  LEU414      0.0001
      8  CD2       -9.6540   32.2220  -25.5610 C.3   414  LEU414      0.0001
      9  N        -11.5520   40.4070  -24.8150 N.3   417  ARG417     -0.1231
     10  CA       -11.4560   40.9040  -26.1830 C.3   417  ARG417      0.1694
     11  C        -12.5390   40.3390  -27.1040 C.2   417  ARG417      0.2591
     12  O        -13.2240   41.0880  -27.8200 O.2   417  ARG417     -0.2718
     13  CB       -10.0770   40.5610  -26.7450 C.3   417  ARG417      0.0321
     14  CG        -8.9330   41.1740  -25.9460 C.3   417  ARG417      0.0489
     15  CD        -7.5940   40.6400  -26.4090 C.3   417  ARG417      0.2205
     16  NE        -7.2610   41.0490  -27.7740 N.pl3 417  ARG417     -0.0865
     17  CZ        -6.3250   40.4640  -28.5190 C.cat 417  ARG417      0.5346
     18  NH1       -5.6410   39.4260  -28.0350 N.pl3 417  ARG417      0.1354
     19  NH2       -6.0300   40.9420  -29.7230 N.pl3 417  ARG417      0.1354
     20  N        -12.6980   39.0180  -27.0800 N.am  418  MET418     -0.1979
     21  CA       -13.6860   38.3580  -27.9270 C.3   418  MET418      0.1605
     22  C        -15.1170   38.7370  -27.5790 C.2   418  MET418      0.2287
     23  O        -15.9140   39.0590  -28.4560 O.2   418  MET418     -0.2864
     24  CB       -13.5430   36.8220  -27.8200 C.3   418  MET418      0.0413
     25  CG       -14.5720   36.0170  -28.6420 C.3   418  MET418      0.0598
     26  SD       -14.3100   34.1990  -28.6430 S.3   418  MET418     -0.1393
     27  CE       -14.8210   33.8040  -26.9970 C.3   418  MET418      0.0692
     28  N         -2.2020   39.7610  -28.7480 N.3   469  LEU469     -0.1231
     29  CA        -1.8920   38.4840  -28.0960 C.3   469  LEU469      0.1693
     30  C         -2.6460   37.3540  -28.7910 C.2   469  LEU469      0.2592
     31  O         -3.7850   37.5360  -29.2190 O.2   469  LEU469     -0.2718
     32  CB        -2.2750   38.5090  -26.6060 C.3   469  LEU469      0.0284
     33  CG        -1.4720   39.4000  -25.6510 C.3   469  LEU469      0.0019
     34  CD1       -1.8430   39.0430  -24.2140 C.3   469  LEU469      0.0001
     35  CD2        0.0400   39.1860  -25.8620 C.3   469  LEU469      0.0001
     36  N         -2.0160   36.1870  -28.8960 N.am  470  HIS470     -0.1962
     37  CA        -2.6420   35.0360  -29.5390 C.3   470  HIS470      0.1787
     38  C         -1.9490   33.7660  -29.0450 C.2   470  HIS470      0.2621
     39  O         -0.9780   33.8390  -28.2990 O.2   470  HIS470     -0.2715
     40  CB        -2.5160   35.1530  -31.0580 C.3   470  HIS470      0.0785
     41  CG        -1.1010   35.1850  -31.5340 C.ar  470  HIS470      0.0821
     42  ND1       -0.4090   34.0440  -31.8860 N.ar  470  HIS470     -0.2267
     43  CD2       -0.2220   36.2080  -31.6410 C.ar  470  HIS470      0.1154
     44  CE1        0.8360   34.3660  -32.1870 C.ar  470  HIS470      0.1986
     45  NE2        0.9760   35.6720  -32.0460 N.ar  470  HIS470     -0.2212
     46  N         -2.4400   32.6070  -29.4720 N.am  471  SER471     -0.1936
     47  CA        -1.8740   31.3400  -29.0310 C.3   471  SER471      0.2055
     48  C         -1.8770   31.3590  -27.5100 C.2   471  SER471      0.2643
     49  O         -0.8190   31.3590  -26.8710 O.2   471  SER471     -0.2714
     50  CB        -0.4390   31.1570  -29.5510 C.3   471  SER471      0.2130
     51  OG        -0.4170   31.0920  -30.9730 O.3   471  SER471     -0.2179
     52  N         -3.0810   31.4010  -26.9430 N.am  472  TYR472     -0.1973
     53  CA        -3.2540   31.4100  -25.5020 C.3   472  TYR472      0.1639
     54  C         -2.9420   30.0090  -24.9990 C.2   472  TYR472      0.2290
     55  O         -2.8270   29.0800  -25.7920 O.2   472  TYR472     -0.2864
     56  CB        -4.6910   31.8140  -25.1520 C.3   472  TYR472      0.0560
     57  CG        -4.9930   33.2930  -25.3920 C.ar  472  TYR472     -0.0198
     58  CD1       -5.5440   33.7480  -26.5990 C.ar  472  TYR472     -0.0009
     59  CD2       -4.7120   34.2380  -24.4010 C.ar  472  TYR472     -0.0009
     60  CE1       -5.8100   35.1330  -26.8030 C.ar  472  TYR472      0.0417
     61  CE2       -4.9680   35.6040  -24.5890 C.ar  472  TYR472      0.0417
     62  CZ        -5.5170   36.0490  -25.7830 C.ar  472  TYR472      0.1957
     63  OH        -5.7860   37.4080  -25.9240 O.3   472  TYR472     -0.2866
     64  N         -7.5390   28.4190  -22.5090 N.3   477  ILE477     -0.1245
     65  CA        -8.5230   28.1100  -23.5470 C.3   477  ILE477      0.1561
     66  C         -9.5710   27.1290  -23.0270 C.2   477  ILE477      0.2260
     67  O        -10.7620   27.3190  -23.2570 O.2   477  ILE477     -0.2867
     68  CB        -7.8420   27.5190  -24.8160 C.3   477  ILE477      0.0252
     69  CG1       -7.0220   28.6180  -25.5070 C.3   477  ILE477      0.0019
     70  CG2       -8.8940   26.9450  -25.7680 C.3   477  ILE477      0.0019
     71  CD1       -6.1690   28.1540  -26.6700 C.3   477  ILE477      0.0001
     72  N        -11.9740   29.0250  -20.6130 N.3   480  VAL480     -0.1231
     73  CA       -12.9010   29.9130  -21.3050 C.3   480  VAL480      0.1692
     74  C        -13.9880   29.0700  -21.9770 C.2   480  VAL480      0.2591
     75  O        -15.1720   29.3370  -21.8060 O.2   480  VAL480     -0.2718
     76  CB       -12.1690   30.7830  -22.3590 C.3   480  VAL480      0.0266
     77  CG1      -13.1810   31.4920  -23.2660 C.3   480  VAL480      0.0020
     78  CG2      -11.2890   31.8190  -21.6430 C.3   480  VAL480      0.0020
     79  N        -13.5770   28.0360  -22.7070 N.am  481  ALA481     -0.1980
     80  CA       -14.5180   27.1510  -23.3890 C.3   481  ALA481      0.1597
     81  C        -15.5090   26.5180  -22.4180 C.2   481  ALA481      0.2287
     82  O        -16.7140   26.4790  -22.6930 O.2   481  ALA481     -0.2864
     83  CB       -13.7590   26.0660  -24.1590 C.3   481  ALA481      0.0319
     84  N        -18.0490   29.1810  -21.3860 N.3   484  LEU484     -0.1231
     85  CA       -19.0110   29.5070  -22.4410 C.3   484  LEU484      0.1693
     86  C        -20.0810   28.4360  -22.6090 C.2   484  LEU484      0.2591
     87  O        -21.2420   28.7490  -22.8820 O.2   484  LEU484     -0.2718
     88  CB       -18.2890   29.7500  -23.7630 C.3   484  LEU484      0.0284
     89  CG       -17.2100   30.8470  -23.7370 C.3   484  LEU484      0.0019
     90  CD1      -16.9990   31.3470  -25.1580 C.3   484  LEU484      0.0001
     91  CD2      -17.6160   32.0060  -22.8250 C.3   484  LEU484      0.0001
     92  N        -19.7020   27.1720  -22.4400 N.am  485  ARG485     -0.1980
     93  CA       -20.6750   26.0990  -22.5530 C.3   485  ARG485      0.1597
     94  C        -21.6380   26.1380  -21.3660 C.2   485  ARG485      0.2287
     95  O        -22.8390   25.9320  -21.5270 O.2   485  ARG485     -0.2864
     96  CB       -19.9740   24.7350  -22.6160 C.3   485  ARG485      0.0334
     97  CG       -19.2420   24.4800  -23.9290 C.3   485  ARG485      0.0492
     98  CD       -18.9010   22.9960  -24.1140 C.3   485  ARG485      0.2205
     99  NE       -17.8540   22.5300  -23.2070 N.pl3 485  ARG485     -0.0865
    100  CZ       -16.5620   22.8250  -23.3340 C.cat 485  ARG485      0.5346
    101  NH1      -16.1490   23.5920  -24.3390 N.pl3 485  ARG485      0.1354
    102  NH2      -15.6790   22.3560  -22.4570 N.pl3 485  ARG485      0.1354
    103  N        -20.3680   30.7940  -29.8380 N.3   491  PRO491     -0.2102
    104  CA       -18.9820   30.4490  -30.1770 C.3   491  PRO491      0.1504
    105  C        -18.1900   31.5550  -30.8900 C.2   491  PRO491      0.2575
    106  O        -18.7260   32.6030  -31.2600 O.2   491  PRO491     -0.2718
    107  CB       -19.1480   29.1920  -31.0310 C.3   491  PRO491      0.0282
    108  CG       -20.4130   29.5110  -31.8020 C.3   491  PRO491      0.0208
    109  CD       -21.3230   30.0970  -30.7270 C.3   491  PRO491      0.0893
    110  N        -16.9010   31.3030  -31.0790 N.am  492  LEU492     -0.1980
    111  CA       -16.0020   32.2580  -31.7180 C.3   492  LEU492      0.1596
    112  C        -16.4440   32.8760  -33.0550 C.2   492  LEU492      0.2287
    113  O        -16.3610   34.0970  -33.2420 O.2   492  LEU492     -0.2864
    114  CB       -14.6280   31.6060  -31.8820 C.3   492  LEU492      0.0297
    115  CG       -13.6420   32.3690  -32.7570 C.3   492  LEU492      0.0022
    116  CD1      -13.2970   33.6910  -32.1030 C.3   492  LEU492      0.0001
    117  CD2      -12.4050   31.5270  -32.9680 C.3   492  LEU492      0.0001
    118  N        -16.5600   36.7130  -33.8290 N.3   496  ARG496     -0.1245
    119  CA       -15.6790   37.2530  -34.8610 C.3   496  ARG496      0.1563
    120  C        -16.5280   38.0030  -35.8800 C.2   496  ARG496      0.2260
    121  O        -16.1740   39.1050  -36.3010 O.2   496  ARG496     -0.2867
    122  CB       -14.8860   36.1250  -35.5340 C.3   496  ARG496      0.0307
    123  CG       -14.3490   36.4600  -36.9210 C.3   496  ARG496      0.0489
    124  CD       -12.9220   35.9480  -37.1570 C.3   496  ARG496      0.2205
    125  NE       -12.6500   34.6190  -36.6000 N.pl3 496  ARG496     -0.0865
    126  CZ       -13.2770   33.5000  -36.9520 C.cat 496  ARG496      0.5346
    127  NH1      -14.2330   33.5280  -37.8690 N.pl3 496  ARG496      0.1354
    128  NH2      -12.9390   32.3450  -36.3910 N.pl3 496  ARG496      0.1354
    129  N         -7.8740   41.5870  -33.9330 N.3   523  TRP523     -0.1241
    130  CA        -7.8810   40.1270  -33.8450 C.3   523  TRP523      0.1605
    131  C         -8.9310   39.4700  -34.7310 C.2   523  TRP523      0.2264
    132  O         -8.8340   38.2800  -35.0350 O.2   523  TRP523     -0.2867
    133  CB        -8.1520   39.6600  -32.4130 C.3   523  TRP523      0.0550
    134  CG        -9.4600   40.1620  -31.8290 C.ar  523  TRP523      0.0003
    135  CD1       -9.6370   41.2920  -31.0780 C.ar  523  TRP523      0.0946
    136  CD2      -10.7580   39.5590  -31.9530 C.ar  523  TRP523      0.0152
    137  NE1      -10.9600   41.4260  -30.7190 N.ar  523  TRP523     -0.2442
    138  CE2      -11.6730   40.3710  -31.2370 C.ar  523  TRP523      0.0810
    139  CE3      -11.2400   38.4010  -32.5830 C.ar  523  TRP523      0.0012
    140  CZ2      -13.0370   40.0830  -31.1490 C.ar  523  TRP523      0.0191
    141  CZ3      -12.6070   38.1070  -32.4960 C.ar  523  TRP523      0.0001
    142  CH2      -13.4860   38.9450  -31.7770 C.ar  523  TRP523      0.0015
    143  N         -4.3110   41.7610  -40.6210 N.3   528  LYS528     -0.1245
    144  CA        -4.0980   42.5950  -39.4440 C.3   528  LYS528      0.1561
    145  C         -3.4930   43.9500  -39.8020 C.2   528  LYS528      0.2260
    146  O         -2.7130   44.0570  -40.7510 O.2   528  LYS528     -0.2867
    147  CB        -3.1630   41.8700  -38.4780 C.3   528  LYS528      0.0271
    148  CG        -3.4520   40.3860  -38.3340 C.3   528  LYS528      0.0035
    149  CD        -4.7560   40.1450  -37.6070 C.3   528  LYS528      0.0206
    150  CE        -5.0280   38.6610  -37.4490 C.3   528  LYS528      0.1093
    151  NZ        -6.2920   38.4320  -36.7070 N.3   528  LYS528     -0.1314
@<TRIPOS>BOND
     1   146   145    2
     2   143   144    1
     3   145   144    1
     4   144   147    1
     5   147   148    1
     6   148   149    1
     7   127   126    1
     8   149   150    1
     9   150   151    1
    10   124   123    1
    11   124   125    1
    12   126   125    2
    13   126   128    1
    14   123   122    1
    15   121   120    2
    16   120   119    1
    17   122   119    1
    18   132   131    2
    19   119   118    1
    20   131   130    1
    21   129   130    1
    22   130   133    1
    23   113   112    2
    24   112   111    1
    25   117   115    1
    26   115   116    1
    27   115   114    1
    28   139   141   ar
    29   139   136   ar
    30   141   142   ar
    31   133   134    1
    32    44    45   ar
    33    44    42   ar
    34    45    43   ar
    35   136   134   ar
    36   136   138   ar
    37    42    41   ar
    38   114   111    1
    39   134   135   ar
    40   108   107    1
    41   108   109    1
    42   142   140   ar
    43   111   110    1
    44    43    41   ar
    45    41    40    1
    46   106   105    2
    47   138   140   ar
    48   138   137   ar
    49   110   105   am
    50   135   137   ar
    51    40    37    1
    52   107   104    1
    53    51    50    1
    54   105   104    1
    55   109   103    1
    56   104   103    1
    57    19    17    1
    58    50    47    1
    59    37    38    1
    60    37    36    1
    61    46    38   am
    62    46    47    1
    63    31    30    2
    64    38    39    2
    65    47    48    1
    66    36    30   am
    67    30    29    1
    68    28    29    1
    69    26    25    1
    70    26    27    1
    71    25    24    1
    72    17    18    1
    73    17    16    2
    74    23    22    2
    75    29    32    1
    76    21    24    1
    77    21    22    1
    78    21    20    1
    79    12    11    2
    80    16    15    1
    81    48    52   am
    82    48    49    2
    83     7     6    1
    84    11    20   am
    85    11    10    1
    86    52    53    1
    87    60    58   ar
    88    60    62   ar
    89    13    10    1
    90    13    14    1
    91    71    69    1
    92    32    33    1
    93    58    57   ar
    94    15    14    1
    95    10     9    1
    96    63    62    1
    97    35    33    1
    98    55    54    2
    99     6     8    1
   100     6     5    1
   101    62    61   ar
   102    70    68    1
   103    33    34    1
   104     4     3    2
   105    69    68    1
   106    53    56    1
   107    53    54    1
   108    57    56    1
   109    57    59   ar
   110    90    89    1
   111     5     2    1
   112    68    65    1
   113     2     3    1
   114     2     1    1
   115    61    59   ar
   116   101   100    1
   117    83    80    1
   118    98    97    1
   119    98    99    1
   120    97    96    1
   121    88    89    1
   122    88    85    1
   123    89    91    1
   124    65    66    1
   125    65    64    1
   126    80    79    1
   127    80    81    1
   128   100    99    2
   129   100   102    1
   130    77    76    1
   131    67    66    2
   132    87    86    2
   133    79    74   am
   134    82    81    2
   135    96    93    1
   136    86    85    1
   137    86    92   am
   138    93    92    1
   139    93    94    1
   140    85    84    1
   141    76    78    1
   142    76    73    1
   143    74    75    2
   144    74    73    1
   145    95    94    2
   146    73    72    1
