@<TRIPOS>MOLECULE
tmp/2d3yA00.pdb
 96 96 0 0 0
SMALL
GASTEIGER

@<TRIPOS>ATOM
      1  N          9.3230   22.1050   14.1990 N.3    46  PHE46      -0.1227
      2  CA         9.3860   23.2470   15.1020 C.3    46  PHE46       0.1736
      3  C         10.8120   23.5320   15.5480 C.2    46  PHE46       0.2596
      4  O         11.5700   22.6100   15.8520 O.2    46  PHE46      -0.2718
      5  CB         8.5230   22.9510   16.3330 C.3    46  PHE46       0.0547
      6  CG         8.6900   23.9390   17.4560 C.ar   46  PHE46      -0.0202
      7  CD1        8.0180   25.1550   17.4390 C.ar   46  PHE46      -0.0042
      8  CD2        9.5160   23.6470   18.5380 C.ar   46  PHE46      -0.0042
      9  CE1        8.1680   26.0670   18.4910 C.ar   46  PHE46      -0.0003
     10  CE2        9.6710   24.5540   19.5920 C.ar   46  PHE46      -0.0003
     11  CZ         8.9940   25.7640   19.5640 C.ar   46  PHE46      -0.0000
     12  N         11.1790   24.8090   15.5840 N.am   47  GLY47      -0.1942
     13  CA        12.5100   25.1540   16.0410 C.3    47  GLY47       0.2014
     14  C         13.2090   26.2790   15.3100 C.2    47  GLY47       0.2639
     15  O         12.5860   27.1280   14.6720 O.2    47  GLY47      -0.2714
     16  N         14.5300   26.2690   15.4240 N.am   48  ASP48      -0.1957
     17  CA        15.3880   27.2730   14.8130 C.3    48  ASP48       0.1825
     18  C         15.4730   27.0310   13.3120 C.2    48  ASP48       0.2464
     19  O         15.9400   25.9840   12.8780 O.2    48  ASP48      -0.2730
     20  CB        16.7880   27.1680   15.4170 C.3    48  ASP48       0.1450
     21  CG        17.6410   28.3840   15.1390 C.2    48  ASP48       0.3671
     22  OD1       17.4370   29.0380   14.0940 O.co2  48  ASP48      -0.2456
     23  OD2       18.5280   28.6740   15.9690 O.co2  48  ASP48      -0.2456
     24  N         15.0270   28.0010   12.4990 N.am   49  PRO49      -0.2727
     25  CA        15.0750   27.8510   11.0440 C.3    49  PRO49       0.1402
     26  C         16.5110   27.8670   10.5130 C.2    49  PRO49       0.2269
     27  O         16.7480   27.6130    9.3310 O.2    49  PRO49      -0.2865
     28  CB        14.2440   29.0320   10.5530 C.3    49  PRO49       0.0296
     29  CG        14.5110   30.0730   11.5870 C.3    49  PRO49       0.0237
     30  CD        14.4070   29.2840   12.8730 C.3    49  PRO49       0.0939
     31  N          2.4630   20.8300   17.7030 N.3    70  ARG70      -0.1245
     32  CA         3.9100   21.0250   17.8130 C.3    70  ARG70       0.1563
     33  C          4.5750   19.6950   18.1670 C.2    70  ARG70       0.2260
     34  O          4.1410   19.0040   19.0900 O.2    70  ARG70      -0.2867
     35  CB         4.2270   22.0600   18.8990 C.3    70  ARG70       0.0307
     36  CG         5.7130   22.3970   19.0190 C.3    70  ARG70       0.0489
     37  CD         6.0100   23.2420   20.2550 C.3    70  ARG70       0.2205
     38  NE         5.4480   24.5900   20.1830 N.pl3  70  ARG70      -0.0865
     39  CZ         5.5510   25.4870   21.1600 C.cat  70  ARG70       0.5346
     40  NH1        5.0230   26.6980   21.0170 N.pl3  70  ARG70       0.1354
     41  NH2        6.1740   25.1700   22.2860 N.pl3  70  ARG70       0.1354
     42  N          3.0670   29.0420   23.5750 N.3   100  ASP100     -0.1225
     43  CA         4.0330   29.6240   24.5020 C.3   100  ASP100      0.1805
     44  C          5.1830   30.2960   23.7520 C.2   100  ASP100      0.2598
     45  O          5.2250   30.2840   22.5190 O.2   100  ASP100     -0.2718
     46  CB         4.5850   28.5620   25.4670 C.3   100  ASP100      0.1424
     47  CG         5.5150   27.5630   24.7920 C.2   100  ASP100      0.3668
     48  OD1        5.8770   27.7600   23.6140 O.co2 100  ASP100     -0.2456
     49  OD2        5.8950   26.5760   25.4600 O.co2 100  ASP100     -0.2456
     50  N          6.1100   30.8840   24.5030 N.am  101  ASP101     -0.1960
     51  CA         7.2500   31.5680   23.9050 C.3   101  ASP101      0.1840
     52  C          8.5200   30.7240   23.8950 C.2   101  ASP101      0.2622
     53  O          9.6300   31.2550   23.9320 O.2   101  ASP101     -0.2715
     54  CB         7.5180   32.8930   24.6330 C.3   101  ASP101      0.1450
     55  CG         7.8350   32.7050   26.1090 C.2   101  ASP101      0.3671
     56  OD1        7.9690   31.5500   26.5580 O.co2 101  ASP101     -0.2456
     57  OD2        7.9570   33.7230   26.8260 O.co2 101  ASP101     -0.2456
     58  N          8.3620   29.4060   23.8450 N.am  102  LEU102     -0.1963
     59  CA         9.5190   28.5170   23.8200 C.3   102  LEU102      0.1728
     60  C         10.3390   28.7080   22.5540 C.2   102  LEU102      0.2616
     61  O          9.7970   28.7800   21.4530 O.2   102  LEU102     -0.2715
     62  CB         9.0780   27.0510   23.8900 C.3   102  LEU102      0.0311
     63  CG        10.1790   25.9980   23.6660 C.3   102  LEU102      0.0022
     64  CD1       11.1720   26.0230   24.8230 C.3   102  LEU102      0.0001
     65  CD2        9.5490   24.6160   23.5500 C.3   102  LEU102      0.0001
     66  N         11.6520   28.7950   22.7080 N.am  103  ARG103     -0.1963
     67  CA        12.5050   28.9070   21.5430 C.3   103  ARG103      0.1729
     68  C         13.6860   27.9700   21.7050 C.2   103  ARG103      0.2616
     69  O         14.2090   27.7940   22.8060 O.2   103  ARG103     -0.2715
     70  CB        12.9580   30.3510   21.3120 C.3   103  ARG103      0.0348
     71  CG        13.6720   31.0360   22.4470 C.3   103  ARG103      0.0492
     72  CD        13.7130   32.5310   22.1460 C.3   103  ARG103      0.2205
     73  NE        14.1440   32.7770   20.7710 N.pl3 103  ARG103     -0.0865
     74  CZ        13.6580   33.7390   19.9920 C.cat 103  ARG103      0.5346
     75  NH1       12.7170   34.5560   20.4460 N.pl3 103  ARG103      0.1354
     76  NH2       14.1070   33.8790   18.7520 N.pl3 103  ARG103      0.1354
     77  N         14.0690   27.3340   20.6050 N.am  104  LEU104     -0.1963
     78  CA        15.1870   26.4040   20.6080 C.3   104  LEU104      0.1728
     79  C         16.4210   27.1010   20.0500 C.2   104  LEU104      0.2616
     80  O         16.3290   27.8900   19.1090 O.2   104  LEU104     -0.2715
     81  CB        14.8500   25.1740   19.7610 C.3   104  LEU104      0.0311
     82  CG        13.5160   24.4910   20.0720 C.3   104  LEU104      0.0022
     83  CD1       13.4060   23.2210   19.2520 C.3   104  LEU104      0.0001
     84  CD2       13.4140   24.1750   21.5560 C.3   104  LEU104      0.0001
     85  N         17.5780   26.8080   20.6330 N.am  105  TYR105     -0.1974
     86  CA        18.8170   27.4340   20.1930 C.3   105  TYR105      0.1639
     87  C         19.5990   26.5490   19.2220 C.2   105  TYR105      0.2290
     88  O         20.3400   25.6600   19.6390 O.2   105  TYR105     -0.2864
     89  CB        19.6930   27.7700   21.4050 C.3   105  TYR105      0.0560
     90  CG        18.9840   28.5170   22.5180 C.ar  105  TYR105     -0.0198
     91  CD1       18.1530   29.6070   22.2430 C.ar  105  TYR105     -0.0009
     92  CD2       19.1760   28.1580   23.8520 C.ar  105  TYR105     -0.0009
     93  CE1       17.5330   30.3230   23.2740 C.ar  105  TYR105      0.0417
     94  CE2       18.5610   28.8660   24.8880 C.ar  105  TYR105      0.0417
     95  CZ        17.7460   29.9450   24.5920 C.ar  105  TYR105      0.1957
     96  OH        17.1620   30.6610   25.6170 O.3   105  TYR105     -0.2866
@<TRIPOS>BOND
     1    27    26    2
     2    26    25    1
     3    28    25    1
     4    28    29    1
     5    25    24    1
     6    29    30    1
     7    24    30    1
     8    24    18   am
     9    19    18    2
    10    18    17    1
    11    22    21   ar
    12     1     2    1
    13    15    14    2
    14    17    20    1
    15    17    16    1
    16     2     3    1
    17     2     5    1
    18    21    20    1
    19    21    23   ar
    20    14    16   am
    21    14    13    1
    22     3    12   am
    23     3     4    2
    24    12    13    1
    25     5     6    1
    26     7     6   ar
    27     7     9   ar
    28     6     8   ar
    29    31    32    1
    30    32    33    1
    31    32    35    1
    32    33    34    2
    33     9    11   ar
    34     8    10   ar
    35    76    74    1
    36    35    36    1
    37    36    37    1
    38    80    79    2
    39    87    88    2
    40    87    86    1
    41    83    82    1
    42    11    10   ar
    43    81    82    1
    44    81    78    1
    45    74    75    1
    46    74    73    2
    47    79    78    1
    48    79    85   am
    49    82    84    1
    50    38    37    1
    51    38    39    2
    52    86    85    1
    53    86    89    1
    54    77    78    1
    55    77    68   am
    56    73    72    1
    57    40    39    1
    58    39    41    1
    59    70    67    1
    60    70    71    1
    61    89    90    1
    62    61    60    2
    63    67    68    1
    64    67    66    1
    65    68    69    2
    66    72    71    1
    67    91    90   ar
    68    91    93   ar
    69    90    92   ar
    70    45    44    2
    71    60    66   am
    72    60    59    1
    73    93    95   ar
    74    65    63    1
    75    42    43    1
    76    48    47   ar
    77    63    62    1
    78    63    64    1
    79    44    43    1
    80    44    50   am
    81    59    58    1
    82    59    62    1
    83    58    52   am
    84    92    94   ar
    85    52    51    1
    86    52    53    2
    87    51    50    1
    88    51    54    1
    89    43    46    1
    90    95    94   ar
    91    95    96    1
    92    54    55    1
    93    47    49   ar
    94    47    46    1
    95    55    56   ar
    96    55    57   ar
