@<TRIPOS>MOLECULE
tmp/2d3zA00.pdb
 133 127 0 0 0
SMALL
GASTEIGER

@<TRIPOS>ATOM
      1  N          8.4360   37.3710   68.9480 N.3   416  LEU416     -0.1245
      2  CA         9.2190   36.8390   70.0550 C.3   416  LEU416      0.1561
      3  C         10.6900   37.2090   69.9190 C.2   416  LEU416      0.2260
      4  O         11.3230   37.6280   70.8900 O.2   416  LEU416     -0.2867
      5  CB         9.0860   35.3100   70.0900 C.3   416  LEU416      0.0270
      6  CG        10.0000   34.5370   71.0430 C.3   416  LEU416      0.0019
      7  CD1        9.6430   34.8590   72.4820 C.3   416  LEU416      0.0001
      8  CD2        9.8580   33.0430   70.7760 C.3   416  LEU416      0.0001
      9  N         11.5590   41.2120   70.1140 N.3   419  ARG419     -0.1231
     10  CA        11.4420   41.6850   71.4870 C.3   419  ARG419      0.1694
     11  C         12.5230   41.1210   72.4070 C.2   419  ARG419      0.2591
     12  O         13.1890   41.8600   73.1380 O.2   419  ARG419     -0.2718
     13  CB        10.0610   41.3280   72.0440 C.3   419  ARG419      0.0321
     14  CG         8.9000   41.9350   71.2770 C.3   419  ARG419      0.0489
     15  CD         7.5730   41.3500   71.7570 C.3   419  ARG419      0.2205
     16  NE         7.2550   41.7530   73.1260 N.pl3 419  ARG419     -0.0865
     17  CZ         6.4170   41.0950   73.9190 C.cat 419  ARG419      0.5346
     18  NH1        5.8130   39.9950   73.4830 N.pl3 419  ARG419      0.1354
     19  NH2        6.1800   41.5370   75.1480 N.pl3 419  ARG419      0.1354
     20  N         12.7010   39.8090   72.3670 N.am  420  MET420     -0.1979
     21  CA        13.6860   39.1660   73.2230 C.3   420  MET420      0.1605
     22  C         15.1270   39.5070   72.8690 C.2   420  MET420      0.2287
     23  O         15.9350   39.7870   73.7520 O.2   420  MET420     -0.2864
     24  CB        13.5070   37.6460   73.1780 C.3   420  MET420      0.0413
     25  CG        14.4850   36.8840   74.0500 C.3   420  MET420      0.0598
     26  SD        14.2250   35.0890   74.0190 S.3   420  MET420     -0.1393
     27  CE        14.8860   34.6810   72.4000 C.3   420  MET420      0.0692
     28  N          2.3940   40.3110   74.2940 N.3   471  LEU471     -0.1231
     29  CA         2.1690   39.0240   73.6480 C.3   471  LEU471      0.1693
     30  C          2.9580   37.9030   74.3060 C.2   471  LEU471      0.2592
     31  O          4.0960   38.0860   74.7360 O.2   471  LEU471     -0.2718
     32  CB         2.5140   39.0880   72.1580 C.3   471  LEU471      0.0284
     33  CG         1.6650   40.0600   71.3390 C.3   471  LEU471      0.0019
     34  CD1        1.8750   39.7790   69.8560 C.3   471  LEU471      0.0001
     35  CD2        0.1900   39.9010   71.7100 C.3   471  LEU471      0.0001
     36  N          2.3210   36.7420   74.3860 N.am  472  HIS472     -0.1962
     37  CA         2.9070   35.5530   74.9780 C.3   472  HIS472      0.1787
     38  C          2.1530   34.3720   74.3870 C.2   472  HIS472      0.2621
     39  O          1.2220   34.5550   73.5970 O.2   472  HIS472     -0.2715
     40  CB         2.7420   35.5860   76.5000 C.3   472  HIS472      0.0785
     41  CG         1.3150   35.5790   76.9530 C.ar  472  HIS472      0.0821
     42  ND1        0.6380   34.4200   77.2650 N.ar  472  HIS472     -0.2267
     43  CD2        0.4260   36.5880   77.1130 C.ar  472  HIS472      0.1154
     44  CE1       -0.6050   34.7150   77.5990 C.ar  472  HIS472      0.1986
     45  NE2       -0.7600   36.0240   77.5150 N.ar  472  HIS472     -0.2212
     46  N          2.5490   33.1650   74.7680 N.am  473  SER473     -0.1936
     47  CA         1.9110   31.9650   74.2530 C.3   473  SER473      0.2055
     48  C          1.9360   31.9870   72.7280 C.2   473  SER473      0.2643
     49  O          0.8910   31.9540   72.0660 O.2   473  SER473     -0.2714
     50  CB         0.4690   31.8570   74.7650 C.3   473  SER473      0.2130
     51  OG         0.4420   31.7460   76.1800 O.3   473  SER473     -0.2179
     52  N          3.1460   32.0570   72.1800 N.am  474  TYR474     -0.1973
     53  CA         3.3390   32.0560   70.7380 C.3   474  TYR474      0.1639
     54  C          3.0540   30.6490   70.2180 C.2   474  TYR474      0.2290
     55  O          3.0210   29.6890   70.9940 O.2   474  TYR474     -0.2864
     56  CB         4.7710   32.4700   70.3900 C.3   474  TYR474      0.0560
     57  CG         5.0570   33.9380   70.6290 C.ar  474  TYR474     -0.0198
     58  CD1        5.4260   34.4110   71.8940 C.ar  474  TYR474     -0.0009
     59  CD2        4.9340   34.8630   69.5910 C.ar  474  TYR474     -0.0009
     60  CE1        5.6660   35.7810   72.1130 C.ar  474  TYR474      0.0417
     61  CE2        5.1690   36.2220   69.8000 C.ar  474  TYR474      0.0417
     62  CZ         5.5330   36.6760   71.0550 C.ar  474  TYR474      0.1957
     63  OH         5.7540   38.0280   71.2370 O.3   474  TYR474     -0.2866
     64  N          7.5920   29.1080   67.7260 N.3   479  ILE479     -0.1245
     65  CA         8.5540   28.7800   68.7700 C.3   479  ILE479      0.1561
     66  C          9.6500   27.8710   68.2180 C.2   479  ILE479      0.2260
     67  O         10.8350   28.0870   68.4830 O.2   479  ILE479     -0.2867
     68  CB         7.8510   28.0880   69.9640 C.3   479  ILE479      0.0252
     69  CG1        6.9440   29.0980   70.6730 C.3   479  ILE479      0.0019
     70  CG2        8.8770   27.5050   70.9260 C.3   479  ILE479      0.0019
     71  CD1        6.0880   28.4990   71.7770 C.3   479  ILE479      0.0001
     72  N         12.0950   29.8760   65.9220 N.3   482  VAL482     -0.1231
     73  CA        13.0070   30.7510   66.6500 C.3   482  VAL482      0.1692
     74  C         14.0690   29.9140   67.3500 C.2   482  VAL482      0.2591
     75  O         15.2510   30.2410   67.3080 O.2   482  VAL482     -0.2718
     76  CB        12.2580   31.6140   67.6950 C.3   482  VAL482      0.0266
     77  CG1       13.2530   32.4510   68.5010 C.3   482  VAL482      0.0020
     78  CG2       11.2620   32.5330   66.9870 C.3   482  VAL482      0.0020
     79  N         13.6450   28.8250   67.9840 N.am  483  ALA483     -0.1980
     80  CA        14.5790   27.9420   68.6780 C.3   483  ALA483      0.1597
     81  C         15.6310   27.4040   67.7140 C.2   483  ALA483      0.2287
     82  O         16.8130   27.3080   68.0560 O.2   483  ALA483     -0.2864
     83  CB        13.8250   26.7850   69.3210 C.3   483  ALA483      0.0319
     84  N         18.2050   30.0820   66.8290 N.3   486  LEU486     -0.1245
     85  CA        19.1340   30.3390   67.9200 C.3   486  LEU486      0.1561
     86  C         20.2380   29.2890   67.9450 C.2   486  LEU486      0.2260
     87  O         21.4010   29.6110   68.1670 O.2   486  LEU486     -0.2867
     88  CB        18.3970   30.3690   69.2610 C.3   486  LEU486      0.0270
     89  CG        17.2290   31.3570   69.3800 C.3   486  LEU486      0.0019
     90  CD1       16.8460   31.5000   70.8450 C.3   486  LEU486      0.0001
     91  CD2       17.6170   32.7170   68.8120 C.3   486  LEU486      0.0001
     92  N         16.8890   32.0560   76.2450 N.3   494  LEU494     -0.1245
     93  CA        15.9540   32.9570   76.9050 C.3   494  LEU494      0.1561
     94  C         16.4020   33.4700   78.2730 C.2   494  LEU494      0.2260
     95  O         16.2660   34.6590   78.5660 O.2   494  LEU494     -0.2867
     96  CB        14.5980   32.2680   77.0470 C.3   494  LEU494      0.0270
     97  CG        13.5640   32.9380   77.9580 C.3   494  LEU494      0.0019
     98  CD1       13.2640   34.3490   77.4790 C.3   494  LEU494      0.0001
     99  CD2       12.3000   32.0920   77.9750 C.3   494  LEU494      0.0001
    100  N         16.6010   37.4230   79.1840 N.3   498  ARG498     -0.1245
    101  CA        15.7190   37.9340   80.2230 C.3   498  ARG498      0.1563
    102  C         16.5530   38.6630   81.2740 C.2   498  ARG498      0.2260
    103  O         16.1820   39.7390   81.7430 O.2   498  ARG498     -0.2867
    104  CB        14.9440   36.7800   80.8710 C.3   498  ARG498      0.0307
    105  CG        14.1760   37.1620   82.1280 C.3   498  ARG498      0.0489
    106  CD        13.4820   35.9450   82.7170 C.3   498  ARG498      0.2205
    107  NE        12.3140   35.5600   81.9320 N.pl3 498  ARG498     -0.0865
    108  CZ        11.9840   34.3070   81.6340 C.cat 498  ARG498      0.5346
    109  NH1       10.8940   34.0650   80.9170 N.pl3 498  ARG498      0.1354
    110  NH2       12.7500   33.2980   82.0330 N.pl3 498  ARG498      0.1354
    111  N          7.9750   42.2470   79.3410 N.3   525  TRP525     -0.1241
    112  CA         8.0120   40.7930   79.2170 C.3   525  TRP525      0.1605
    113  C          9.0640   40.1430   80.1070 C.2   525  TRP525      0.2264
    114  O          8.9320   38.9810   80.4930 O.2   525  TRP525     -0.2867
    115  CB         8.2830   40.3700   77.7610 C.3   525  TRP525      0.0550
    116  CG         9.6050   40.8580   77.1850 C.ar  525  TRP525      0.0003
    117  CD1        9.8160   42.0040   76.4690 C.ar  525  TRP525      0.0946
    118  CD2       10.8850   40.2140   77.2890 C.ar  525  TRP525      0.0152
    119  NE1       11.1420   42.1130   76.1190 N.ar  525  TRP525     -0.2442
    120  CE2       11.8220   41.0300   76.6070 C.ar  525  TRP525      0.0810
    121  CE3       11.3320   39.0290   77.8880 C.ar  525  TRP525      0.0012
    122  CZ2       13.1810   40.6990   76.5120 C.ar  525  TRP525      0.0191
    123  CZ3       12.6880   38.6990   77.7930 C.ar  525  TRP525      0.0001
    124  CH2       13.5930   39.5350   77.1070 C.ar  525  TRP525      0.0015
    125  N          4.4680   41.7790   85.8760 N.3   530  LYS530     -0.1245
    126  CA         4.1760   42.7870   84.8610 C.3   530  LYS530      0.1561
    127  C          3.4860   44.0330   85.4050 C.2   530  LYS530      0.2260
    128  O          2.8210   43.9890   86.4400 O.2   530  LYS530     -0.2867
    129  CB         3.3200   42.1810   83.7450 C.3   530  LYS530      0.0271
    130  CG         4.0840   41.2810   82.7800 C.3   530  LYS530      0.0035
    131  CD         4.6850   40.0720   83.4760 C.3   530  LYS530      0.0206
    132  CE         5.4640   39.2090   82.4960 C.3   530  LYS530      0.1093
    133  NZ         6.0770   38.0320   83.1640 N.3   530  LYS530     -0.1314
@<TRIPOS>BOND
     1    72    73    1
     2    73    74    1
     3    73    76    1
     4    84    85    1
     5    78    76    1
     6    75    74    2
     7    74    79   am
     8    76    77    1
     9    81    82    2
    10    81    80    1
    11    64    65    1
    12    85    86    1
    13    85    88    1
    14    86    87    2
    15    79    80    1
    16    66    67    2
    17    66    65    1
    18    80    83    1
    19    65    68    1
    20    91    89    1
    21     1     2    1
    22    88    89    1
    23    89    90    1
    24    59    61   ar
    25    59    57   ar
    26    61    62   ar
    27    34    33    1
    28     3     2    1
    29     3     4    2
    30    68    69    1
    31    68    70    1
    32     2     5    1
    33     5     6    1
    34     9    10    1
    35    54    53    1
    36    54    55    2
    37    56    57    1
    38    56    53    1
    39    57    58   ar
    40    69    71    1
    41    53    52    1
    42     8     6    1
    43     6     7    1
    44    62    63    1
    45    62    60   ar
    46    14    15    1
    47    14    13    1
    48    33    35    1
    49    33    32    1
    50    10    13    1
    51    10    11    1
    52    15    16    1
    53    58    60   ar
    54    49    48    2
    55    32    29    1
    56    52    48   am
    57    20    11   am
    58    20    21    1
    59    27    26    1
    60    11    12    2
    61    48    47    1
    62    22    21    1
    63    22    23    2
    64    16    17    2
    65    24    21    1
    66    24    25    1
    67    18    17    1
    68    39    38    2
    69    29    28    1
    70    29    30    1
    71    17    19    1
    72    26    25    1
    73    47    50    1
    74    47    46    1
    75    30    36   am
    76    30    31    2
    77    36    37    1
    78    38    46   am
    79    38    37    1
    80    50    51    1
    81    37    40    1
    82   119   117   ar
    83   119   120   ar
    84    92    93    1
    85   117   116   ar
    86    40    41    1
    87   122   120   ar
    88   122   124   ar
    89   120   118   ar
    90    93    96    1
    91    93    94    1
    92    41    43   ar
    93    41    42   ar
    94    96    97    1
    95   124   123   ar
    96    43    45   ar
    97   116   118   ar
    98   116   115    1
    99    42    44   ar
   100   118   121   ar
   101    98    97    1
   102    45    44   ar
   103   115   112    1
   104   123   121   ar
   105    97    99    1
   106    94    95    2
   107   100   101    1
   108   112   111    1
   109   112   113    1
   110   113   114    2
   111   101   104    1
   112   101   102    1
   113   104   105    1
   114   109   108    1
   115   102   103    2
   116   108   107    2
   117   108   110    1
   118   107   106    1
   119   105   106    1
   120   132   133    1
   121   132   131    1
   122   130   131    1
   123   130   129    1
   124   129   126    1
   125   126   127    1
   126   126   125    1
   127   127   128    2
