@<TRIPOS>MOLECULE
tmp/2d41A00.pdb
 151 146 0 0 0
SMALL
GASTEIGER

@<TRIPOS>ATOM
      1  N          8.3920   37.9150   66.4290 N.3   414  LEU414     -0.1245
      2  CA         9.1670   37.4680   67.5720 C.3   414  LEU414      0.1561
      3  C         10.6370   37.8380   67.3890 C.2   414  LEU414      0.2260
      4  O         11.2660   38.3760   68.2990 O.2   414  LEU414     -0.2867
      5  CB         9.0390   35.9480   67.7220 C.3   414  LEU414      0.0270
      6  CG         9.9200   35.2210   68.7500 C.3   414  LEU414      0.0019
      7  CD1        9.5700   35.6830   70.1670 C.3   414  LEU414      0.0001
      8  CD2        9.7160   33.7100   68.6260 C.3   414  LEU414      0.0001
      9  N         11.5670   41.7920   67.2370 N.3   417  ARG417     -0.1231
     10  CA        11.4690   42.3600   68.5750 C.3   417  ARG417      0.1694
     11  C         12.5460   41.8940   69.5450 C.2   417  ARG417      0.2591
     12  O         13.2270   42.7070   70.1650 O.2   417  ARG417     -0.2718
     13  CB        10.1020   42.0430   69.1840 C.3   417  ARG417      0.0321
     14  CG         8.9270   42.6210   68.4350 C.3   417  ARG417      0.0489
     15  CD         7.6330   42.0250   68.9530 C.3   417  ARG417      0.2205
     16  NE         7.2540   42.5240   70.2740 N.pl3 417  ARG417     -0.0865
     17  CZ         6.3110   41.9660   71.0290 C.cat 417  ARG417      0.5346
     18  NH1        5.6680   40.8890   70.5930 N.pl3 417  ARG417      0.1354
     19  NH2        5.9910   42.4940   72.2050 N.pl3 417  ARG417      0.1354
     20  N         12.6840   40.5790   69.6720 N.am  418  MET418     -0.1979
     21  CA        13.6460   39.9790   70.5890 C.3   418  MET418      0.1605
     22  C         15.1000   40.2470   70.2430 C.2   418  MET418      0.2287
     23  O         15.9210   40.5020   71.1260 O.2   418  MET418     -0.2864
     24  CB        13.4460   38.4560   70.6410 C.3   418  MET418      0.0413
     25  CG        14.3560   37.7490   71.6480 C.3   418  MET418      0.0598
     26  SD        14.2200   35.9390   71.6140 S.3   418  MET418     -0.1393
     27  CE        12.5610   35.7490   72.1720 C.3   418  MET418      0.0692
     28  N          2.2070   41.3190   71.2000 N.3   469  LEU469     -0.1231
     29  CA         1.9050   40.0130   70.6310 C.3   469  LEU469      0.1693
     30  C          2.5870   38.9340   71.4500 C.2   469  LEU469      0.2592
     31  O          3.6830   39.1370   71.9660 O.2   469  LEU469     -0.2718
     32  CB         2.3750   39.9130   69.1760 C.3   469  LEU469      0.0284
     33  CG         1.5930   40.6990   68.1250 C.3   469  LEU469      0.0019
     34  CD1        1.9320   40.1620   66.7440 C.3   469  LEU469      0.0001
     35  CD2        0.0950   40.5550   68.3770 C.3   469  LEU469      0.0001
     36  N          1.9250   37.7900   71.5730 N.am  470  HIS470     -0.1962
     37  CA         2.4660   36.6630   72.3130 C.3   470  HIS470      0.1787
     38  C          1.7720   35.3960   71.8270 C.2   470  HIS470      0.2621
     39  O          0.8850   35.4520   70.9710 O.2   470  HIS470     -0.2715
     40  CB         2.2670   36.8670   73.8240 C.3   470  HIS470      0.0785
     41  CG         0.8330   36.9510   74.2440 C.ar  470  HIS470      0.0821
     42  ND1        0.0810   35.8370   74.5450 N.ar  470  HIS470     -0.2267
     43  CD2        0.0060   38.0140   74.3810 C.ar  470  HIS470      0.1154
     44  CE1       -1.1500   36.2100   74.8490 C.ar  470  HIS470      0.1986
     45  NE2       -1.2210   37.5250   74.7570 N.ar  470  HIS470     -0.2212
     46  N          2.1750   34.2550   72.3690 N.am  471  SER471     -0.1936
     47  CA         1.6100   32.9800   71.9490 C.3   471  SER471      0.2055
     48  C          1.7020   32.8540   70.4290 C.2   471  SER471      0.2643
     49  O          0.7000   32.6620   69.7460 O.2   471  SER471     -0.2714
     50  CB         0.1530   32.8550   72.4050 C.3   471  SER471      0.2130
     51  OG         0.0740   32.7450   73.8170 O.3   471  SER471     -0.2179
     52  N          2.9180   32.9810   69.9060 N.am  472  TYR472     -0.1973
     53  CA         3.1590   32.8560   68.4800 C.3   472  TYR472      0.1639
     54  C          2.8730   31.4070   68.0970 C.2   472  TYR472      0.2290
     55  O          2.7870   30.5450   68.9650 O.2   472  TYR472     -0.2864
     56  CB         4.6130   33.2210   68.1470 C.3   472  TYR472      0.0560
     57  CG         4.9320   34.7000   68.2900 C.ar  472  TYR472     -0.0198
     58  CD1        5.3830   35.2310   69.4990 C.ar  472  TYR472     -0.0009
     59  CD2        4.7500   35.5730   67.2170 C.ar  472  TYR472     -0.0009
     60  CE1        5.6440   36.6030   69.6350 C.ar  472  TYR472      0.0417
     61  CE2        5.0040   36.9390   67.3410 C.ar  472  TYR472      0.0417
     62  CZ         5.4500   37.4490   68.5500 C.ar  472  TYR472      0.1957
     63  OH         5.6890   38.8030   68.6660 O.3   472  TYR472     -0.2866
     64  N          7.4710   29.6860   65.6110 N.3   477  ILE477     -0.1245
     65  CA         8.4400   29.4690   66.6760 C.3   477  ILE477      0.1561
     66  C          9.5580   28.5440   66.2260 C.2   477  ILE477      0.2260
     67  O         10.7340   28.8470   66.4080 O.2   477  ILE477     -0.2867
     68  CB         7.7670   28.8830   67.9420 C.3   477  ILE477      0.0252
     69  CG1        6.9050   29.9590   68.6150 C.3   477  ILE477      0.0019
     70  CG2        8.8280   28.3620   68.9050 C.3   477  ILE477      0.0019
     71  CD1        6.1510   29.4870   69.8520 C.3   477  ILE477      0.0001
     72  N         11.9060   30.1940   63.7000 N.3   480  VAL480     -0.1231
     73  CA        12.7750   31.1690   64.3460 C.3   480  VAL480      0.1692
     74  C         13.8780   30.4410   65.1160 C.2   480  VAL480      0.2591
     75  O         15.0630   30.7490   64.9660 O.2   480  VAL480     -0.2718
     76  CB        11.9830   32.0850   65.3140 C.3   480  VAL480      0.0266
     77  CG1       12.9420   32.9340   66.1450 C.3   480  VAL480      0.0020
     78  CG2       11.0480   32.9860   64.5190 C.3   480  VAL480      0.0020
     79  N         13.4950   29.4630   65.9300 N.am  481  ALA481     -0.1980
     80  CA        14.4790   28.7140   66.7060 C.3   481  ALA481      0.1597
     81  C         15.4730   27.9730   65.8080 C.2   481  ALA481      0.2287
     82  O         16.6490   27.8620   66.1460 O.2   481  ALA481     -0.2864
     83  CB        13.7780   27.7340   67.6450 C.3   481  ALA481      0.0319
     84  N         17.9930   30.5160   64.4810 N.3   484  LEU484     -0.1231
     85  CA        18.9450   30.9220   65.5070 C.3   484  LEU484      0.1693
     86  C         20.0220   29.8620   65.7250 C.2   484  LEU484      0.2591
     87  O         21.1930   30.1980   65.9370 O.2   484  LEU484     -0.2718
     88  CB        18.2180   31.2340   66.8200 C.3   484  LEU484      0.0284
     89  CG        17.1030   32.2850   66.7050 C.3   484  LEU484      0.0019
     90  CD1       16.7020   32.7610   68.0920 C.3   484  LEU484      0.0001
     91  CD2       17.5720   33.4610   65.8670 C.3   484  LEU484      0.0001
     92  N         19.6330   28.5890   65.6620 N.am  485  ARG485     -0.1980
     93  CA        20.5920   27.5010   65.8360 C.3   485  ARG485      0.1597
     94  C         21.5440   27.4810   64.6460 C.2   485  ARG485      0.2287
     95  O         22.7560   27.3480   64.8050 O.2   485  ARG485     -0.2864
     96  CB        19.8740   26.1480   65.9540 C.3   485  ARG485      0.0334
     97  CG        19.3120   25.8500   67.3460 C.3   485  ARG485      0.0492
     98  CD        18.8120   24.4120   67.4560 C.3   485  ARG485      0.2205
     99  NE        17.6120   24.1870   66.6560 N.pl3 485  ARG485     -0.0865
    100  CZ        16.3800   24.4940   67.0500 C.cat 485  ARG485      0.5346
    101  NH1       16.1710   25.0350   68.2440 N.pl3 485  ARG485      0.1354
    102  NH2       15.3560   24.2740   66.2420 N.pl3 485  ARG485      0.1354
    103  N         20.0490   32.5160   72.6260 N.3   491  PRO491     -0.2102
    104  CA        18.6480   32.2680   72.9830 C.3   491  PRO491      0.1504
    105  C         17.9350   33.3770   73.7600 C.2   491  PRO491      0.2575
    106  O         18.5210   34.4070   74.0970 O.2   491  PRO491     -0.2718
    107  CB        18.7330   30.9740   73.7800 C.3   491  PRO491      0.0282
    108  CG        20.0120   31.1610   74.5280 C.3   491  PRO491      0.0208
    109  CD        20.9450   31.6790   73.4480 C.3   491  PRO491      0.0893
    110  N         16.6610   33.1350   74.0490 N.am  492  LEU492     -0.1980
    111  CA        15.8150   34.0850   74.7600 C.3   492  LEU492      0.1596
    112  C         16.3680   34.6320   76.0750 C.2   492  LEU492      0.2287
    113  O         16.4190   35.8510   76.2610 O.2   492  LEU492     -0.2864
    114  CB        14.4370   33.4590   75.0040 C.3   492  LEU492      0.0297
    115  CG        13.4420   34.2030   75.9010 C.3   492  LEU492      0.0022
    116  CD1       13.1450   35.5920   75.3400 C.3   492  LEU492      0.0001
    117  CD2       12.1630   33.3830   76.0050 C.3   492  LEU492      0.0001
    118  N         16.5150   38.5130   76.6120 N.3   496  ARG496     -0.1245
    119  CA        15.6090   39.0990   77.5930 C.3   496  ARG496      0.1563
    120  C         16.4090   39.9420   78.5790 C.2   496  ARG496      0.2260
    121  O         15.9740   41.0220   78.9790 O.2   496  ARG496     -0.2867
    122  CB        14.8480   38.0040   78.3490 C.3   496  ARG496      0.0307
    123  CG        13.9050   38.5270   79.4370 C.3   496  ARG496      0.0489
    124  CD        13.3510   37.3920   80.2960 C.3   496  ARG496      0.2205
    125  NE        12.4940   36.4860   79.5340 N.pl3 496  ARG496     -0.0865
    126  CZ        11.3120   36.8230   79.0230 C.cat 496  ARG496      0.5346
    127  NH1       10.6020   35.9350   78.3400 N.pl3 496  ARG496      0.1354
    128  NH2       10.8290   38.0470   79.2000 N.pl3 496  ARG496      0.1354
    129  N          7.8160   43.4230   76.4630 N.3   523  TRP523     -0.1241
    130  CA         7.8350   41.9610   76.4410 C.3   523  TRP523      0.1605
    131  C          8.9160   41.3780   77.3440 C.2   523  TRP523      0.2264
    132  O          8.8180   40.2280   77.7760 O.2   523  TRP523     -0.2867
    133  CB         8.0820   41.4360   75.0170 C.3   523  TRP523      0.0550
    134  CG         9.3840   41.9190   74.3940 C.ar  523  TRP523      0.0003
    135  CD1        9.5420   42.9810   73.5440 C.ar  523  TRP523      0.0946
    136  CD2       10.6920   41.3500   74.5660 C.ar  523  TRP523      0.0152
    137  NE1       10.8560   43.1020   73.1750 N.ar  523  TRP523     -0.2442
    138  CE2       11.5860   42.1160   73.7850 C.ar  523  TRP523      0.0810
    139  CE3       11.1950   40.2650   75.3000 C.ar  523  TRP523      0.0012
    140  CZ2       12.9610   41.8330   73.7150 C.ar  523  TRP523      0.0191
    141  CZ3       12.5680   39.9810   75.2280 C.ar  523  TRP523      0.0001
    142  CH2       13.4290   40.7640   74.4400 C.ar  523  TRP523      0.0015
    143  N          4.3010   43.6690   83.0770 N.3   528  LYS528     -0.1245
    144  CA         3.9940   44.5180   81.9280 C.3   528  LYS528      0.1561
    145  C          3.3410   45.8390   82.3020 C.2   528  LYS528      0.2260
    146  O          2.6850   45.9480   83.3360 O.2   528  LYS528     -0.2867
    147  CB         3.0800   43.7760   80.9510 C.3   528  LYS528      0.0271
    148  CG         3.7990   42.8620   79.9790 C.3   528  LYS528      0.0035
    149  CD         4.4840   41.7060   80.6760 C.3   528  LYS528      0.0206
    150  CE         5.2560   40.8660   79.6720 C.3   528  LYS528      0.1093
    151  NZ         5.9310   39.7070   80.3090 N.3   528  LYS528     -0.1314
@<TRIPOS>BOND
     1    72    73    1
     2    73    74    1
     3    73    76    1
     4    84    85    1
     5    78    76    1
     6    94    95    2
     7    94    93    1
     8    75    74    2
     9    74    79   am
    10    76    77    1
    11    85    86    1
    12    85    88    1
    13    64    65    1
    14    92    86   am
    15    92    93    1
    16    86    87    2
    17    81    82    2
    18    81    80    1
    19    93    96    1
    20    91    89    1
    21    79    80    1
    22    96    97    1
    23    66    67    2
    24    66    65    1
    25   102   100    1
    26     1     2    1
    27    99   100    2
    28    99    98    1
    29    65    68    1
    30    89    88    1
    31    89    90    1
    32    80    83    1
    33    34    33    1
    34   100   101    1
    35    59    61   ar
    36    59    57   ar
    37     9    10    1
    38    61    62   ar
    39    97    98    1
    40     3     2    1
    41     3     4    2
    42     2     5    1
    43     5     6    1
    44    68    69    1
    45    68    70    1
    46    54    53    1
    47    54    55    2
    48    33    35    1
    49    33    32    1
    50    56    57    1
    51    56    53    1
    52    57    58   ar
    53    14    15    1
    54    14    13    1
    55    53    52    1
    56    62    63    1
    57    62    60   ar
    58    10    13    1
    59    10    11    1
    60    69    71    1
    61     8     6    1
    62     6     7    1
    63    15    16    1
    64    32    29    1
    65    58    60   ar
    66    11    20   am
    67    11    12    2
    68    20    21    1
    69    49    48    2
    70    52    48   am
    71    22    21    1
    72    22    23    2
    73    16    17    2
    74    48    47    1
    75    21    24    1
    76    18    17    1
    77    29    28    1
    78    29    30    1
    79    24    25    1
    80    39    38    2
    81    17    19    1
    82    30    36   am
    83    30    31    2
    84    36    37    1
    85    26    25    1
    86    26    27    1
    87    38    37    1
    88    38    46   am
    89    47    46    1
    90    47    50    1
    91    37    40    1
    92    50    51    1
    93   103   104    1
    94   103   109    1
    95   104   105    1
    96   104   107    1
    97   137   135   ar
    98   137   138   ar
    99   109   108    1
   100   135   134   ar
   101   140   138   ar
   102   140   142   ar
   103   105   110   am
   104   105   106    2
   105   107   108    1
   106   138   136   ar
   107    40    41    1
   108   110   111    1
   109    41    43   ar
   110    41    42   ar
   111    43    45   ar
   112   134   136   ar
   113   134   133    1
   114   142   141   ar
   115    42    44   ar
   116   136   139   ar
   117    45    44   ar
   118   111   114    1
   119   111   112    1
   120   114   115    1
   121   133   130    1
   122   141   139   ar
   123   116   115    1
   124   115   117    1
   125   112   113    2
   126   130   129    1
   127   130   131    1
   128   118   119    1
   129   131   132    2
   130   119   122    1
   131   119   120    1
   132   127   126    1
   133   122   123    1
   134   120   121    2
   135   126   128    1
   136   126   125    2
   137   123   124    1
   138   125   124    1
   139   150   151    1
   140   150   149    1
   141   148   149    1
   142   148   147    1
   143   147   144    1
   144   144   145    1
   145   144   143    1
   146   145   146    2
