@<TRIPOS>MOLECULE
tmp/2d43A02.pdb
 90 88 0 0 0
SMALL
GASTEIGER

@<TRIPOS>ATOM
      1  N         36.0590  -18.4340   26.8280 N.3   339  THR339     -0.1218
      2  CA        37.4740  -18.7370   26.6320 C.3   339  THR339      0.1862
      3  C         38.0210  -19.5880   27.7740 C.2   339  THR339      0.2287
      4  O         37.8960  -19.2290   28.9450 O.2   339  THR339     -0.2866
      5  CB        38.3280  -17.4680   26.5550 C.3   339  THR339      0.1770
      6  OG1       37.8780  -16.6470   25.4730 O.3   339  THR339     -0.2211
      7  CG2       39.7780  -17.8380   26.3310 C.3   339  THR339      0.0375
      8  N         38.9110  -18.6380   31.6900 N.3   342  TYR342     -0.1241
      9  CA        38.2710  -17.3690   32.0160 C.3   342  TYR342      0.1605
     10  C         36.7650  -17.6000   32.0950 C.2   342  TYR342      0.2264
     11  O         35.9790  -16.6580   32.2330 O.2   342  TYR342     -0.2867
     12  CB        38.5800  -16.3470   30.9200 C.3   342  TYR342      0.0534
     13  CG        40.0520  -16.0270   30.7620 C.ar  342  TYR342     -0.0201
     14  CD1       40.6830  -15.1080   31.6070 C.ar  342  TYR342     -0.0009
     15  CD2       40.8190  -16.6600   29.7850 C.ar  342  TYR342     -0.0009
     16  CE1       42.0340  -14.8270   31.4840 C.ar  342  TYR342      0.0417
     17  CE2       42.1760  -16.3900   29.6520 C.ar  342  TYR342      0.0417
     18  CZ        42.7810  -15.4700   30.5030 C.ar  342  TYR342      0.1957
     19  OH        44.1270  -15.1880   30.3590 O.3   342  TYR342     -0.2866
     20  N         34.9530   -8.2090   22.2330 N.3   445  ARG445     -0.1231
     21  CA        36.1090   -9.0730   22.4200 C.3   445  ARG445      0.1694
     22  C         36.8850   -8.7280   23.6770 C.2   445  ARG445      0.2592
     23  O         37.2200   -7.5650   23.9080 O.2   445  ARG445     -0.2718
     24  CB        37.0290   -8.9770   21.1910 C.3   445  ARG445      0.0321
     25  CG        38.1680   -9.9980   21.1430 C.3   445  ARG445      0.0489
     26  CD        39.4130   -9.5730   21.9430 C.3   445  ARG445      0.2205
     27  NE        40.4490  -10.6050   21.8800 N.pl3 445  ARG445     -0.0865
     28  CZ        41.0860  -10.9670   20.7680 C.cat 445  ARG445      0.5346
     29  NH1       40.8110  -10.3790   19.6180 N.pl3 445  ARG445      0.1354
     30  NH2       41.9750  -11.9450   20.7960 N.pl3 445  ARG445      0.1354
     31  N         37.1620   -9.7340   24.4980 N.am  446  HIS446     -0.1962
     32  CA        37.9350   -9.4980   25.7090 C.3   446  HIS446      0.1787
     33  C         39.4220   -9.7810   25.4370 C.2   446  HIS446      0.2620
     34  O         39.7810  -10.7860   24.8210 O.2   446  HIS446     -0.2715
     35  CB        37.4000  -10.3510   26.8760 C.3   446  HIS446      0.0785
     36  CG        37.5690  -11.8310   26.6930 C.ar  446  HIS446      0.0821
     37  ND1       38.6800  -12.5140   27.1340 N.ar  446  HIS446     -0.2267
     38  CD2       36.7490  -12.7610   26.1440 C.ar  446  HIS446      0.1154
     39  CE1       38.5380  -13.8030   26.8690 C.ar  446  HIS446      0.1986
     40  NE2       37.3760  -13.9780   26.2690 N.ar  446  HIS446     -0.2212
     41  N         40.2690   -8.8520   25.8660 N.am  447  TYR447     -0.1960
     42  CA        41.7150   -8.9500   25.7000 C.3   447  TYR447      0.1771
     43  C         42.3210   -8.4890   27.0190 C.2   447  TYR447      0.2619
     44  O         42.3480   -7.2920   27.3230 O.2   447  TYR447     -0.2715
     45  CB        42.1930   -8.0350   24.5660 C.3   447  TYR447      0.0574
     46  CG        43.6920   -8.0320   24.3550 C.ar  447  TYR447     -0.0198
     47  CD1       44.3350   -9.1030   23.7220 C.ar  447  TYR447     -0.0009
     48  CD2       44.4750   -6.9770   24.8250 C.ar  447  TYR447     -0.0009
     49  CE1       45.7290   -9.1230   23.5660 C.ar  447  TYR447      0.0417
     50  CE2       45.8610   -6.9850   24.6780 C.ar  447  TYR447      0.0417
     51  CZ        46.4830   -8.0580   24.0500 C.ar  447  TYR447      0.1957
     52  OH        47.8530   -8.0570   23.9200 O.3   447  TYR447     -0.2866
     53  N         42.8090   -9.4460   27.7980 N.am  448  GLU448     -0.1963
     54  CA        43.3880   -9.1480   29.0900 C.3   448  GLU448      0.1733
     55  C         42.3040   -8.5750   29.9930 C.2   448  GLU448      0.2616
     56  O         42.5150   -7.5850   30.6900 O.2   448  GLU448     -0.2715
     57  CB        44.5410   -8.1550   28.9550 C.3   448  GLU448      0.0429
     58  CG        45.7150   -8.6690   28.1260 C.3   448  GLU448      0.1163
     59  CD        46.9000   -7.7180   28.1570 C.2   448  GLU448      0.3649
     60  OE1       46.7370   -6.5390   27.7780 O.co2 448  GLU448     -0.2457
     61  OE2       47.9970   -8.1460   28.5650 O.co2 448  GLU448     -0.2457
     62  N         41.1350   -9.2080   29.9480 N.am  449  ASN449     -0.1972
     63  CA        39.9770   -8.8470   30.7690 C.3   449  ASN449      0.1688
     64  C         39.3240   -7.4800   30.5470 C.2   449  ASN449      0.2292
     65  O         38.5910   -6.9950   31.4110 O.2   449  ASN449     -0.2864
     66  CB        40.3280   -9.0160   32.2530 C.3   449  ASN449      0.1181
     67  CG        40.9280  -10.3840   32.5570 C.2   449  ASN449      0.2629
     68  OD1       40.5400  -11.3950   31.9600 O.2   449  ASN449     -0.2716
     69  ND2       41.8720  -10.4220   33.4910 N.am  449  ASN449     -0.0877
     70  N         45.0520  -14.3660   18.1160 N.3   466  THR466     -0.1203
     71  CA        45.2440  -15.3950   19.1200 C.3   466  THR466      0.1994
     72  C         44.0600  -15.4550   20.0740 C.2   466  THR466      0.2618
     73  O         43.8310  -14.5290   20.8570 O.2   466  THR466     -0.2717
     74  CB        46.5220  -15.1490   19.9400 C.3   466  THR466      0.1784
     75  OG1       47.6610  -15.1780   19.0770 O.3   466  THR466     -0.2211
     76  CG2       46.6830  -16.2180   20.9860 C.3   466  THR466      0.0376
     77  N         43.3110  -16.5530   19.9900 N.am  467  SER467     -0.1951
     78  CA        42.1520  -16.7990   20.8460 C.3   467  SER467      0.1924
     79  C         40.9530  -15.9140   20.5000 C.2   467  SER467      0.2314
     80  O         40.0340  -15.7450   21.3050 O.2   467  SER467     -0.2863
     81  CB        42.5470  -16.5970   22.3090 C.3   467  SER467      0.2116
     82  OG        41.6500  -17.2780   23.1580 O.3   467  SER467     -0.2180
     83  N         37.4430  -15.4680   22.3690 N.3   471  ASP471     -0.1239
     84  CA        37.2900  -14.1610   22.9780 C.3   471  ASP471      0.1674
     85  C         36.0670  -13.3930   22.4670 C.2   471  ASP471      0.2266
     86  O         35.6930  -12.3690   23.0390 O.2   471  ASP471     -0.2867
     87  CB        38.5590  -13.3240   22.7720 C.3   471  ASP471      0.1410
     88  CG        39.7970  -13.9530   23.4130 C.2   471  ASP471      0.3668
     89  OD1       39.6570  -14.6870   24.4140 O.co2 471  ASP471     -0.2456
     90  OD2       40.9170  -13.6980   22.9210 O.co2 471  ASP471     -0.2456
@<TRIPOS>BOND
     1    70    71    1
     2    75    74    1
     3    71    74    1
     4    71    72    1
     5    29    28    1
     6    74    76    1
     7    77    72   am
     8    77    78    1
     9    72    73    2
    10    79    78    1
    11    79    80    2
    12    28    30    1
    13    28    27    2
    14    78    81    1
    15    25    24    1
    16    25    26    1
    17    24    21    1
    18    27    26    1
    19    20    21    1
    20    81    82    1
    21    83    84    1
    22    21    22    1
    23    85    84    1
    24    85    86    2
    25    87    84    1
    26    87    88    1
    27    90    88   ar
    28    88    89   ar
    29    49    47   ar
    30    49    51   ar
    31    22    23    2
    32    22    31   am
    33    47    46   ar
    34    52    51    1
    35    51    50   ar
    36    46    45    1
    37    46    48   ar
    38    31    32    1
    39    45    42    1
    40    50    48   ar
    41    34    33    2
    42    33    32    1
    43    33    41   am
    44     6     5    1
    45    42    41    1
    46    42    43    1
    47    32    35    1
    48    38    40   ar
    49    38    36   ar
    50    40    39   ar
    51     7     5    1
    52     5     2    1
    53     2     1    1
    54     2     3    1
    55    36    35    1
    56    36    37   ar
    57    39    37   ar
    58    43    44    2
    59    43    53   am
    60     3     4    2
    61    60    59   ar
    62    53    54    1
    63    58    59    1
    64    58    57    1
    65    59    61   ar
    66    57    54    1
    67    54    55    1
    68    17    15   ar
    69    17    18   ar
    70    15    13   ar
    71    62    55   am
    72    62    63    1
    73    55    56    2
    74    19    18    1
    75    18    16   ar
    76    64    63    1
    77    64    65    2
    78    13    12    1
    79    13    14   ar
    80    63    66    1
    81    12     9    1
    82    16    14   ar
    83     8     9    1
    84    68    67    2
    85     9    10    1
    86    10    11    2
    87    66    67    1
    88    67    69   am
