@<TRIPOS>MOLECULE
tmp/2d44A02.pdb
 86 84 0 0 0
SMALL
GASTEIGER

@<TRIPOS>ATOM
      1  N         43.9020    3.9610    7.9750 N.3    95  PRO95      -0.2116
      2  CA        44.2110    3.4380    9.3060 C.3    95  PRO95       0.1372
      3  C         44.8780    2.0590    9.2920 C.2    95  PRO95       0.2244
      4  O         45.2680    1.5390   10.3440 O.2    95  PRO95      -0.2868
      5  CB        42.8430    3.3990    9.9700 C.3    95  PRO95       0.0268
      6  CG        41.9610    2.9730    8.8330 C.3    95  PRO95       0.0207
      7  CD        42.4620    3.8340    7.6790 C.3    95  PRO95       0.0892
      8  N         41.0860    0.3180    5.1810 N.3   102  ASN102     -0.1240
      9  CA        40.6210   -1.0040    5.5860 C.3   102  ASN102      0.1653
     10  C         39.7660   -1.6420    4.5070 C.2   102  ASN102      0.2266
     11  O         39.0290   -0.9550    3.7980 O.2   102  ASN102     -0.2867
     12  CB        39.7480   -0.9540    6.8470 C.3   102  ASN102      0.1155
     13  CG        40.4280   -0.3040    8.0230 C.2   102  ASN102      0.2627
     14  OD1       41.6270   -0.4750    8.2540 O.2   102  ASN102     -0.2716
     15  ND2       39.6490    0.4290    8.8020 N.am  102  ASN102     -0.0877
     16  N         34.0110    4.1650    8.4850 N.3   125  PRO125     -0.2102
     17  CA        35.0740    5.1640    8.3180 C.3   125  PRO125      0.1504
     18  C         36.4550    4.4970    8.3020 C.2   125  PRO125      0.2576
     19  O         36.7750    3.7060    9.1850 O.2   125  PRO125     -0.2718
     20  CB        34.8860    6.0740    9.5360 C.3   125  PRO125      0.0282
     21  CG        33.4070    5.9530    9.8420 C.3   125  PRO125      0.0208
     22  CD        33.1670    4.4740    9.6540 C.3   125  PRO125      0.0893
     23  N         37.2660    4.8120    7.2960 N.am  126  GLY126     -0.1957
     24  CA        38.5930    4.2290    7.2080 C.3   126  GLY126      0.1869
     25  C         38.6880    3.1630    6.1360 C.2   126  GLY126      0.2309
     26  O         39.7850    2.7280    5.7750 O.2   126  GLY126     -0.2863
     27  N         39.6240    9.4810    4.2920 N.3   283  ASN283     -0.1240
     28  CA        38.9080    8.2560    4.6410 C.3   283  ASN283      0.1653
     29  C         38.0990    8.2690    5.9360 C.2   283  ASN283      0.2266
     30  O         38.1750    7.3300    6.7200 O.2   283  ASN283     -0.2867
     31  CB        39.8860    7.0730    4.6790 C.3   283  ASN283      0.1155
     32  CG        41.0910    7.3340    5.5690 C.2   283  ASN283      0.2627
     33  OD1       41.9600    8.1460    5.2350 O.2   283  ASN283     -0.2716
     34  ND2       41.1520    6.6450    6.7080 N.am  283  ASN283     -0.0877
     35  N         34.6360    3.2160   21.6010 N.3   400  TYR400     -0.1227
     36  CA        35.2760    4.5130   21.4440 C.3   400  TYR400      0.1736
     37  C         36.7380    4.1960   21.1840 C.2   400  TYR400      0.2595
     38  O         37.3870    3.5650   22.0130 O.2   400  TYR400     -0.2718
     39  CB        35.1480    5.3200   22.7350 C.3   400  TYR400      0.0548
     40  CG        35.5350    6.7720   22.5990 C.ar  400  TYR400     -0.0200
     41  CD1       34.5990    7.7240   22.2150 C.ar  400  TYR400     -0.0009
     42  CD2       36.8340    7.1960   22.8590 C.ar  400  TYR400     -0.0009
     43  CE1       34.9410    9.0650   22.0970 C.ar  400  TYR400      0.0417
     44  CE2       37.1900    8.5400   22.7430 C.ar  400  TYR400      0.0417
     45  CZ        36.2350    9.4690   22.3650 C.ar  400  TYR400      0.1957
     46  OH        36.5620   10.8050   22.2820 O.3   400  TYR400     -0.2866
     47  N         37.2570    4.6300   20.0400 N.am  401  ASN401     -0.1960
     48  CA        38.6370    4.3330   19.6940 C.3   401  ASN401      0.1819
     49  C         38.8160    2.8190   19.8280 C.2   401  ASN401      0.2621
     50  O         39.8860    2.3090   20.1730 O.2   401  ASN401     -0.2715
     51  CB        39.6030    5.1110   20.6020 C.3   401  ASN401      0.1195
     52  CG        39.9200    6.4950   20.0510 C.2   401  ASN401      0.2630
     53  OD1       40.3840    6.6210   18.9150 O.2   401  ASN401     -0.2716
     54  ND2       39.6700    7.5390   20.8430 N.am  401  ASN401     -0.0877
     55  N         37.7150    2.1240   19.5550 N.am  402  PHE402     -0.1974
     56  CA        37.6300    0.6720   19.5820 C.3   402  PHE402      0.1639
     57  C         37.6550   -0.0160   20.9400 C.2   402  PHE402      0.2290
     58  O         37.7950   -1.2300   21.0260 O.2   402  PHE402     -0.2864
     59  CB        38.6800    0.0920   18.6390 C.3   402  PHE402      0.0560
     60  CG        38.5360    0.5880   17.2310 C.ar  402  PHE402     -0.0200
     61  CD1       37.3220    0.4510   16.5610 C.ar  402  PHE402     -0.0042
     62  CD2       39.5850    1.2350   16.5900 C.ar  402  PHE402     -0.0042
     63  CE1       37.1540    0.9550   15.2740 C.ar  402  PHE402     -0.0003
     64  CE2       39.4300    1.7450   15.2990 C.ar  402  PHE402     -0.0003
     65  CZ        38.2120    1.6060   14.6400 C.ar  402  PHE402     -0.0000
     66  N         30.8010   -0.9580   12.4030 N.3   439  TYR439     -0.1241
     67  CA        32.0950   -1.5350   12.0140 C.3   439  TYR439      0.1605
     68  C         31.9750   -3.0660   11.9690 C.2   439  TYR439      0.2264
     69  O         32.5840   -3.7740   12.7700 O.2   439  TYR439     -0.2867
     70  CB        33.1740   -1.1390   13.0210 C.3   439  TYR439      0.0534
     71  CG        33.7080    0.2630   12.8460 C.ar  439  TYR439     -0.0201
     72  CD1       34.8680    0.5000   12.1100 C.ar  439  TYR439     -0.0009
     73  CD2       33.0690    1.3520   13.4340 C.ar  439  TYR439     -0.0009
     74  CE1       35.3810    1.7840   11.9730 C.ar  439  TYR439      0.0417
     75  CE2       33.5740    2.6410   13.3000 C.ar  439  TYR439      0.0417
     76  CZ        34.7310    2.8500   12.5710 C.ar  439  TYR439      0.1957
     77  OH        35.2450    4.1240   12.4530 O.3   439  TYR439     -0.2866
     78  N         45.6870   -2.8760   15.9220 N.3   460  GLN460     -0.1245
     79  CA        45.6350   -2.7360   17.3790 C.3   460  GLN460      0.1566
     80  C         46.0620   -4.0660   18.0090 C.2   460  GLN460      0.2260
     81  O         45.7650   -5.1360   17.4750 O.2   460  GLN460     -0.2867
     82  CB        44.2170   -2.3940   17.8670 C.3   460  GLN460      0.0367
     83  CG        43.7040   -0.9980   17.5340 C.3   460  GLN460      0.0905
     84  CD        42.9890   -0.9260   16.1960 C.2   460  GLN460      0.2608
     85  OE1       42.3840   -1.9000   15.7460 O.2   460  GLN460     -0.2717
     86  NE2       43.0370    0.2410   15.5630 N.am  460  GLN460     -0.0878
@<TRIPOS>BOND
     1    11    10    2
     2    27    28    1
     3    10     9    1
     4    28    31    1
     5    28    29    1
     6    31    32    1
     7     8     9    1
     8    33    32    2
     9    32    34   am
    10     9    12    1
    11    26    25    2
    12    29    30    2
    13    25    24    1
    14    12    13    1
    15    24    23    1
    16    23    18   am
    17     7     1    1
    18     7     6    1
    19     1     2    1
    20    13    14    2
    21    13    15   am
    22    18    17    1
    23    18    19    2
    24    17    16    1
    25    17    20    1
    26    16    22    1
    27     6     5    1
    28     3     2    1
    29     3     4    2
    30     2     5    1
    31    20    21    1
    32    22    21    1
    33    68    67    1
    34    68    69    2
    35    74    72   ar
    36    74    76   ar
    37    67    66    1
    38    67    70    1
    39    72    71   ar
    40    77    76    1
    41    76    75   ar
    42    71    70    1
    43    71    73   ar
    44    75    73   ar
    45    65    63   ar
    46    65    64   ar
    47    63    61   ar
    48    64    62   ar
    49    86    84   am
    50    85    84    2
    51    78    79    1
    52    84    83    1
    53    61    60   ar
    54    62    60   ar
    55    60    59    1
    56    79    82    1
    57    79    80    1
    58    81    80    2
    59    83    82    1
    60    59    56    1
    61    53    52    2
    62    55    56    1
    63    55    49   am
    64    56    57    1
    65    48    49    1
    66    48    47    1
    67    48    51    1
    68    49    50    2
    69    47    37   am
    70    52    51    1
    71    52    54   am
    72    57    58    2
    73    37    36    1
    74    37    38    2
    75    36    35    1
    76    36    39    1
    77    43    41   ar
    78    43    45   ar
    79    41    40   ar
    80    46    45    1
    81    45    44   ar
    82    40    39    1
    83    40    42   ar
    84    44    42   ar
