@<TRIPOS>MOLECULE
tmp/2d4qA00.pdb
 257 246 0 0 0
SMALL
GASTEIGER

@<TRIPOS>ATOM
      1  N        -24.3300    6.3780   12.6470 N.3    13  PHE13      -0.1241
      2  CA       -23.8270    6.7420   13.9630 C.3    13  PHE13       0.1605
      3  C        -22.8650    5.6470   14.4270 C.2    13  PHE13       0.2264
      4  O        -23.2570    4.4750   14.5610 O.2    13  PHE13      -0.2867
      5  CB       -25.0100    6.8840   14.9390 C.3    13  PHE13       0.0534
      6  CG       -24.6370    7.4900   16.2650 C.ar   13  PHE13      -0.0203
      7  CD1      -24.3410    8.8420   16.3650 C.ar   13  PHE13      -0.0042
      8  CD2      -24.5690    6.7040   17.4090 C.ar   13  PHE13      -0.0042
      9  CE1      -23.9830    9.4110   17.5810 C.ar   13  PHE13      -0.0003
     10  CE2      -24.2080    7.2680   18.6330 C.ar   13  PHE13      -0.0003
     11  CZ       -23.9150    8.6280   18.7170 C.ar   13  PHE13      -0.0000
     12  N        -21.8070   11.2970   14.0890 N.3    28  TYR28      -0.1241
     13  CA       -23.1260   11.3020   13.4630 C.3    28  TYR28       0.1605
     14  C        -22.8950   11.8140   12.0280 C.2    28  TYR28       0.2264
     15  O        -22.3840   12.9310   11.8240 O.2    28  TYR28      -0.2867
     16  CB       -24.1410   12.2180   14.1970 C.3    28  TYR28       0.0534
     17  CG       -25.5110   12.1990   13.5080 C.ar   28  TYR28      -0.0201
     18  CD1      -26.2940   11.0430   13.5180 C.ar   28  TYR28      -0.0009
     19  CD2      -25.9630   13.2890   12.7580 C.ar   28  TYR28      -0.0009
     20  CE1      -27.4890   10.9690   12.7910 C.ar   28  TYR28       0.0417
     21  CE2      -27.1620   13.2270   12.0190 C.ar   28  TYR28       0.0417
     22  CZ       -27.9160   12.0510   12.0450 C.ar   28  TYR28       0.1957
     23  OH       -29.0760   11.9330   11.3240 O.3    28  TYR28      -0.2866
     24  N        -24.7120   13.0150    9.1410 N.3    30  ALA30      -0.1245
     25  CA       -25.9820   13.6070    8.7130 C.3    30  ALA30       0.1562
     26  C        -26.5200   13.2180    7.3410 C.2    30  ALA30       0.2260
     27  O        -27.6990   12.8900    7.2190 O.2    30  ALA30      -0.2867
     28  CB       -25.8790   15.1510    8.8140 C.3    30  ALA30       0.0290
     29  N        -29.0420    4.5760   17.9080 N.3    47  VAL47      -0.1245
     30  CA       -28.1960    5.5550   18.5880 C.3    47  VAL47       0.1561
     31  C        -28.2630    5.3050   20.0800 C.2    47  VAL47       0.2260
     32  O        -27.2590    5.3820   20.7830 O.2    47  VAL47      -0.2867
     33  CB       -28.6600    7.0050   18.3120 C.3    47  VAL47       0.0252
     34  CG1      -27.9220    7.9800   19.2270 C.3    47  VAL47       0.0019
     35  CG2      -28.4160    7.3630   16.8520 C.3    47  VAL47       0.0019
     36  N        -25.0730    4.2010   22.5930 N.3    51  LEU51      -0.1245
     37  CA       -24.5980    5.1320   23.6180 C.3    51  LEU51       0.1561
     38  C        -24.8240    4.5370   25.0130 C.2    51  LEU51       0.2260
     39  O        -24.0910    4.8600   25.9430 O.2    51  LEU51      -0.2867
     40  CB       -25.3280    6.4740   23.5330 C.3    51  LEU51       0.0270
     41  CG       -25.0160    7.4100   22.3710 C.3    51  LEU51       0.0019
     42  CD1      -26.0280    8.5380   22.3920 C.3    51  LEU51       0.0001
     43  CD2      -23.5930    7.9420   22.4620 C.3    51  LEU51       0.0001
     44  N        -19.3560   12.0700   27.4610 N.3    59  TYR59      -0.1241
     45  CA       -18.9660   11.6390   26.1130 C.3    59  TYR59       0.1605
     46  C        -19.0530   12.7840   25.0970 C.2    59  TYR59       0.2264
     47  O        -19.6180   13.8430   25.3740 O.2    59  TYR59      -0.2867
     48  CB       -19.8090   10.4510   25.6520 C.3    59  TYR59       0.0534
     49  CG       -21.2740   10.7430   25.4800 C.ar   59  TYR59      -0.0201
     50  CD1      -21.8130   11.0050   24.2140 C.ar   59  TYR59      -0.0009
     51  CD2      -22.1290   10.7570   26.5830 C.ar   59  TYR59      -0.0009
     52  CE1      -23.1740   11.2730   24.0540 C.ar   59  TYR59       0.0417
     53  CE2      -23.4890   11.0210   26.4360 C.ar   59  TYR59       0.0417
     54  CZ       -24.0070   11.2780   25.1690 C.ar   59  TYR59       0.1957
     55  OH       -25.3480   11.5260   25.0320 O.3    59  TYR59      -0.2866
     56  N        -19.6220   14.2260   20.8680 N.3    61  ILE61      -0.1245
     57  CA       -20.1960   13.9470   19.5520 C.3    61  ILE61       0.1561
     58  C        -19.6360   14.8290   18.4490 C.2    61  ILE61       0.2260
     59  O        -19.4210   16.0410   18.6350 O.2    61  ILE61      -0.2867
     60  CB       -21.7340   14.0670   19.5910 C.3    61  ILE61       0.0252
     61  CG1      -22.3020   12.9770   20.4960 C.3    61  ILE61       0.0019
     62  CG2      -22.3280   13.9180   18.1940 C.3    61  ILE61       0.0019
     63  CD1      -23.6480   13.2730   20.9690 C.3    61  ILE61       0.0001
     64  N        -20.4980   15.9000   14.6870 N.3    63  VAL63      -0.1245
     65  CA       -21.5560   15.8550   13.7010 C.3    63  VAL63       0.1561
     66  C        -20.9580   16.3060   12.3860 C.2    63  VAL63       0.2260
     67  O        -20.4040   17.4000   12.2780 O.2    63  VAL63      -0.2867
     68  CB       -22.7690   16.7370   14.1020 C.3    63  VAL63       0.0252
     69  CG1      -22.3050   18.0740   14.5760 C.3    63  VAL63       0.0019
     70  CG2      -23.7110   16.8850   12.9060 C.3    63  VAL63       0.0019
     71  N        -21.6740   17.4570    8.9430 N.3    65  LEU65      -0.1245
     72  CA       -22.7660   18.0250    8.1630 C.3    65  LEU65       0.1561
     73  C        -22.4330   18.1080    6.6650 C.2    65  LEU65       0.2260
     74  O        -23.1410   18.7650    5.8960 O.2    65  LEU65      -0.2867
     75  CB       -23.1400   19.4180    8.7050 C.3    65  LEU65       0.0270
     76  CG       -23.7880   19.4460   10.0990 C.3    65  LEU65       0.0019
     77  CD1      -24.1070   20.9020   10.4910 C.3    65  LEU65       0.0001
     78  CD2      -25.0710   18.6010   10.1090 C.3    65  LEU65       0.0001
     79  N        -25.1350   17.9790    3.8100 N.3    68  THR68      -0.1218
     80  CA       -26.4490   17.7340    4.3830 C.3    68  THR68       0.1862
     81  C        -27.5110   18.6560    3.7620 C.2    68  THR68       0.2287
     82  O        -27.3160   19.8790    3.6840 O.2    68  THR68      -0.2866
     83  CB       -26.3930   17.9070    5.9070 C.3    68  THR68       0.1770
     84  OG1      -25.3610   17.0610    6.4230 O.3    68  THR68      -0.2211
     85  CG2      -27.7220   17.5050    6.5630 C.3    68  THR68       0.0375
     86  N        -32.2140   14.8920    4.2590 N.3    72  ASN72      -0.1225
     87  CA       -31.6000   14.3830    5.4820 C.3    72  ASN72       0.1785
     88  C        -32.1530   15.0800    6.7150 C.2    72  ASN72       0.2597
     89  O        -31.6190   14.9130    7.8170 O.2    72  ASN72      -0.2718
     90  CB       -30.0900   14.6300    5.4700 C.3    72  ASN72       0.1169
     91  CG       -29.4370   14.2840    4.1460 C.2    72  ASN72       0.2627
     92  OD1      -28.8890   15.1560    3.4740 O.2    72  ASN72      -0.2716
     93  ND2      -29.4810   13.0140    3.7710 N.am   72  ASN72      -0.0877
     94  N        -33.2250   15.8490    6.5470 N.am   73  ARG73      -0.1966
     95  CA       -33.7740   16.6090    7.6740 C.3    73  ARG73       0.1729
     96  C        -34.5000   15.8310    8.7420 C.2    73  ARG73       0.2616
     97  O        -35.0840   14.7660    8.4950 O.2    73  ARG73      -0.2715
     98  CB       -34.7280   17.6840    7.1670 C.3    73  ARG73       0.0348
     99  CG       -36.0350   17.0980    6.7150 C.3    73  ARG73       0.0492
    100  CD       -36.9190   18.1220    5.9820 C.3    73  ARG73       0.2205
    101  NE       -38.2120   17.5340    5.6420 N.pl3  73  ARG73      -0.0865
    102  CZ       -38.3970   16.5680    4.7490 C.cat  73  ARG73       0.5346
    103  NH1      -37.3680   16.0770    4.0770 N.pl3  73  ARG73       0.1354
    104  NH2      -39.6120   16.0620    4.5540 N.pl3  73  ARG73       0.1354
    105  N        -34.4410   16.3690    9.9480 N.am   74  PHE74      -0.1974
    106  CA       -35.1900   15.7930   11.0420 C.3    74  PHE74       0.1639
    107  C        -36.5130   16.5650   10.9720 C.2    74  PHE74       0.2290
    108  O        -36.5150   17.7860   11.0130 O.2    74  PHE74      -0.2864
    109  CB       -34.4800   16.0460   12.3760 C.3    74  PHE74       0.0560
    110  CG       -33.3320   15.1040   12.6400 C.ar   74  PHE74      -0.0200
    111  CD1      -32.7630   15.0200   13.9040 C.ar   74  PHE74      -0.0042
    112  CD2      -32.8710   14.2480   11.6410 C.ar   74  PHE74      -0.0042
    113  CE1      -31.7540   14.0900   14.1700 C.ar   74  PHE74      -0.0003
    114  CE2      -31.8620   13.3180   11.8980 C.ar   74  PHE74      -0.0003
    115  CZ       -31.3060   13.2350   13.1590 C.ar   74  PHE74      -0.0000
    116  N        -37.5930   15.7720   15.3560 N.3    79  LEU79      -0.1245
    117  CA       -36.5870   16.6200   15.9710 C.3    79  LEU79       0.1561
    118  C        -36.9580   16.8620   17.4160 C.2    79  LEU79       0.2260
    119  O        -36.0870   16.9950   18.2730 O.2    79  LEU79      -0.2867
    120  CB       -36.5090   17.9580   15.2400 C.3    79  LEU79       0.0270
    121  CG       -35.6350   19.0600   15.8500 C.3    79  LEU79       0.0019
    122  CD1      -34.1720   18.6190   15.8780 C.3    79  LEU79       0.0001
    123  CD2      -35.8070   20.3500   15.0140 C.3    79  LEU79       0.0001
    124  N        -36.3490   13.7790   19.7390 N.3    82  TRP82      -0.1227
    125  CA       -34.9390   13.5910   20.1060 C.3    82  TRP82       0.1737
    126  C        -34.5540   14.2950   21.3980 C.2    82  TRP82       0.2595
    127  O        -33.4790   14.0440   21.9450 O.2    82  TRP82      -0.2718
    128  CB       -33.9940   14.0880   19.0000 C.3    82  TRP82       0.0564
    129  CG       -33.6500   13.0420   17.9940 C.ar   82  TRP82       0.0003
    130  CD1      -34.3780   12.6880   16.8930 C.ar   82  TRP82       0.0946
    131  CD2      -32.5330   12.1540   18.0380 C.ar   82  TRP82       0.0152
    132  NE1      -33.7830   11.6300   16.2500 N.ar   82  TRP82      -0.2442
    133  CE2      -32.6480   11.2800   16.9320 C.ar   82  TRP82       0.0810
    134  CE3      -31.4440   12.0090   18.9040 C.ar   82  TRP82       0.0012
    135  CZ2      -31.7170   10.2720   16.6690 C.ar   82  TRP82       0.0191
    136  CZ3      -30.5140   11.0070   18.6420 C.ar   82  TRP82       0.0001
    137  CH2      -30.6590   10.1510   17.5320 C.ar   82  TRP82       0.0015
    138  N        -35.4170   15.1870   21.8750 N.am   83  PHE83      -0.1976
    139  CA       -35.1450   15.9270   23.1000 C.3    83  PHE83       0.1639
    140  C        -35.8880   15.3180   24.2850 C.2    83  PHE83       0.2290
    141  O        -35.6620   15.6980   25.4330 O.2    83  PHE83      -0.2864
    142  CB       -35.5640   17.3930   22.9330 C.3    83  PHE83       0.0560
    143  CG       -34.5940   18.2270   22.1310 C.ar   83  PHE83      -0.0200
    144  CD1      -33.9400   19.3160   22.7200 C.ar   83  PHE83      -0.0042
    145  CD2      -34.3480   17.9470   20.7880 C.ar   83  PHE83      -0.0042
    146  CE1      -33.0560   20.1140   21.9830 C.ar   83  PHE83      -0.0003
    147  CE2      -33.4640   18.7370   20.0370 C.ar   83  PHE83      -0.0003
    148  CZ       -32.8180   19.8220   20.6340 C.ar   83  PHE83      -0.0000
    149  N        -34.2730   10.5350   25.4000 N.3    86  PHE86      -0.1241
    150  CA       -33.1090   10.0930   26.1580 C.3    86  PHE86       0.1605
    151  C        -33.1720   10.4200   27.6410 C.2    86  PHE86       0.2264
    152  O        -33.8470   11.3640   28.0510 O.2    86  PHE86      -0.2867
    153  CB       -31.8270   10.6940   25.5720 C.3    86  PHE86       0.0534
    154  CG       -31.4360   10.1160   24.2450 C.ar   86  PHE86      -0.0203
    155  CD1      -31.2550    8.7420   24.0970 C.ar   86  PHE86      -0.0042
    156  CD2      -31.2320   10.9420   23.1480 C.ar   86  PHE86      -0.0042
    157  CE1      -30.8760    8.1970   22.8770 C.ar   86  PHE86      -0.0003
    158  CE2      -30.8530   10.4100   21.9240 C.ar   86  PHE86      -0.0003
    159  CZ       -30.6730    9.0320   21.7860 C.ar   86  PHE86      -0.0000
    160  N        -27.9250   13.8650   28.3290 N.3    91  TYR91      -0.1241
    161  CA       -27.6940   15.1510   27.6670 C.3    91  TYR91       0.1605
    162  C        -26.5950   15.9400   28.3720 C.2    91  TYR91       0.2264
    163  O        -25.6710   16.4510   27.7310 O.2    91  TYR91      -0.2867
    164  CB       -28.9700   16.0010   27.6400 C.3    91  TYR91       0.0534
    165  CG       -30.0940   15.3820   26.8480 C.ar   91  TYR91      -0.0201
    166  CD1      -30.9680   14.4730   27.4420 C.ar   91  TYR91      -0.0009
    167  CD2      -30.2580   15.6670   25.4900 C.ar   91  TYR91      -0.0009
    168  CE1      -31.9750   13.8620   26.7100 C.ar   91  TYR91       0.0417
    169  CE2      -31.2620   15.0570   24.7450 C.ar   91  TYR91       0.0417
    170  CZ       -32.1190   14.1550   25.3630 C.ar   91  TYR91       0.1957
    171  OH       -33.1240   13.5500   24.6500 O.3    91  TYR91      -0.2866
    172  N        -23.1170   15.1200   27.6120 N.3    94  VAL94      -0.1245
    173  CA       -22.5320   15.4510   26.3230 C.3    94  VAL94       0.1561
    174  C        -21.5990   16.6180   26.5910 C.2    94  VAL94       0.2260
    175  O        -22.0400   17.7530   26.6750 O.2    94  VAL94      -0.2867
    176  CB       -23.5910   15.8960   25.2950 C.3    94  VAL94       0.0252
    177  CG1      -22.8970   16.4340   24.0660 C.3    94  VAL94       0.0019
    178  CG2      -24.4990   14.7280   24.9250 C.3    94  VAL94       0.0019
    179  N        -20.0270   19.0050   21.3150 N.3    97  VAL97      -0.1245
    180  CA       -20.5460   18.6180   20.0120 C.3    97  VAL97       0.1561
    181  C        -19.6900   19.3530   18.9770 C.2    97  VAL97       0.2260
    182  O        -19.7250   20.5770   18.9110 O.2    97  VAL97      -0.2867
    183  CB       -22.0140   19.0450   19.8460 C.3    97  VAL97       0.0252
    184  CG1      -22.5330   18.6290   18.4670 C.3    97  VAL97       0.0019
    185  CG2      -22.8550   18.3870   20.9200 C.3    97  VAL97       0.0019
    186  N        -27.8250   25.3150    3.8460 N.3   105  TRP105     -0.1227
    187  CA       -29.1120   24.7170    4.1320 C.3   105  TRP105      0.1737
    188  C        -29.2910   24.4240    5.6090 C.2   105  TRP105      0.2595
    189  O        -30.3740   24.6480    6.1650 O.2   105  TRP105     -0.2718
    190  CB       -29.3190   23.4350    3.3160 C.3   105  TRP105      0.0564
    191  CG       -30.6700   22.8310    3.5980 C.ar  105  TRP105      0.0003
    192  CD1      -31.8580   23.1570    3.0140 C.ar  105  TRP105      0.0946
    193  CD2      -30.9750   21.8910    4.6290 C.ar  105  TRP105      0.0152
    194  NE1      -32.8910   22.4800    3.6260 N.ar  105  TRP105     -0.2442
    195  CE2      -32.3730   21.6950    4.6230 C.ar  105  TRP105      0.0810
    196  CE3      -30.2010   21.1960    5.5610 C.ar  105  TRP105      0.0012
    197  CZ2      -33.0170   20.8340    5.5190 C.ar  105  TRP105      0.0191
    198  CZ3      -30.8520   20.3290    6.4670 C.ar  105  TRP105      0.0001
    199  CH2      -32.2410   20.1630    6.4300 C.ar  105  TRP105      0.0015
    200  N        -28.2430   23.9130    6.2560 N.am  106  VAL106     -0.1980
    201  CA       -28.3540   23.6160    7.6730 C.3   106  VAL106      0.1595
    202  C        -28.5500   24.9410    8.4450 C.2   106  VAL106      0.2287
    203  O        -29.2990   25.0120    9.4150 O.2   106  VAL106     -0.2864
    204  CB       -27.1110   22.8520    8.1780 C.3   106  VAL106      0.0276
    205  CG1      -27.0890   22.8350    9.7170 C.3   106  VAL106      0.0022
    206  CG2      -27.1560   21.3870    7.6470 C.3   106  VAL106      0.0022
    207  N        -32.2170   25.7120    8.0610 N.3   109  TYR109     -0.1227
    208  CA       -33.0140   24.7490    8.8250 C.3   109  TYR109      0.1736
    209  C        -33.0410   25.2160   10.2930 C.2   109  TYR109      0.2596
    210  O        -34.0500   25.1520   10.9960 O.2   109  TYR109     -0.2718
    211  CB       -32.3450   23.3490    8.7500 C.3   109  TYR109      0.0548
    212  CG       -32.9470   22.2630    9.6350 C.ar  109  TYR109     -0.0200
    213  CD1      -33.9740   21.4240    9.1740 C.ar  109  TYR109     -0.0009
    214  CD2      -32.5120   22.1030   10.9430 C.ar  109  TYR109     -0.0009
    215  CE1      -34.5520   20.4430   10.0200 C.ar  109  TYR109      0.0417
    216  CE2      -33.0750   21.1580   11.7850 C.ar  109  TYR109      0.0417
    217  CZ       -34.0910   20.3330   11.3270 C.ar  109  TYR109      0.1957
    218  OH       -34.6380   19.4340   12.2060 O.3   109  TYR109     -0.2866
    219  N        -31.8980   25.7000   10.7320 N.am  110  THR110     -0.1953
    220  CA       -31.6860   26.1310   12.0980 C.3   110  THR110      0.1897
    221  C        -32.4400   27.4330   12.4430 C.2   110  THR110      0.2313
    222  O        -32.9150   27.6130   13.5510 O.2   110  THR110     -0.2863
    223  CB       -30.1350   26.1780   12.3120 C.3   110  THR110      0.1794
    224  OG1      -29.7830   25.4050   13.4560 O.3   110  THR110     -0.2208
    225  CG2      -29.6340   27.5290   12.3950 C.3   110  THR110      0.0378
    226  N        -34.7940   24.6480   18.8790 N.3   117  LEU117     -0.1245
    227  CA       -33.3510   24.5480   19.0600 C.3   117  LEU117      0.1561
    228  C        -32.8310   25.6210   20.0250 C.2   117  LEU117      0.2260
    229  O        -31.6170   25.7880   20.2130 O.2   117  LEU117     -0.2867
    230  CB       -32.6400   24.6730   17.6900 C.3   117  LEU117      0.0270
    231  CG       -33.0300   23.7160   16.5590 C.3   117  LEU117      0.0019
    232  CD1      -32.3990   24.1760   15.2410 C.3   117  LEU117      0.0001
    233  CD2      -32.5870   22.3200   16.8920 C.3   117  LEU117      0.0001
    234  N        -29.7890   25.3560   22.1990 N.3   120  LEU120     -0.1245
    235  CA       -28.4880   25.0910   21.5870 C.3   120  LEU120      0.1561
    236  C        -27.8290   26.4080   21.2380 C.2   120  LEU120      0.2260
    237  O        -26.6030   26.4910   21.1750 O.2   120  LEU120     -0.2867
    238  CB       -28.6220   24.2570   20.3080 C.3   120  LEU120      0.0270
    239  CG       -29.3060   22.8820   20.3130 C.3   120  LEU120      0.0019
    240  CD1      -29.2550   22.3340   18.9200 C.3   120  LEU120      0.0001
    241  CD2      -28.6170   21.9160   21.2670 C.3   120  LEU120      0.0001
    242  N        -21.1070   23.6700   21.8530 N.3   126  LEU126     -0.1245
    243  CA       -21.1410   23.4730   20.4050 C.3   126  LEU126      0.1561
    244  C        -19.8570   24.0940   19.8470 C.2   126  LEU126      0.2260
    245  O        -19.6430   25.2860   20.0020 O.2   126  LEU126     -0.2867
    246  CB       -22.3390   24.1690   19.7550 C.3   126  LEU126      0.0270
    247  CG       -23.7590   23.7690   20.1380 C.3   126  LEU126      0.0019
    248  CD1      -24.6860   24.2600   19.0510 C.3   126  LEU126      0.0001
    249  CD2      -23.8980   22.2710   20.2890 C.3   126  LEU126      0.0001
    250  N        -27.0100   29.3740   14.9620 N.3   193  LEU193     -0.1245
    251  CA       -27.2630   29.0720   16.3610 C.3   193  LEU193      0.1561
    252  C        -26.4600   30.0110   17.2810 C.2   193  LEU193      0.2260
    253  O        -25.8550   29.5840   18.2700 O.2   193  LEU193     -0.2867
    254  CB       -26.8970   27.6020   16.6110 C.3   193  LEU193      0.0270
    255  CG       -27.8980   26.5640   16.0750 C.3   193  LEU193      0.0019
    256  CD1      -27.3140   25.1590   16.0990 C.3   193  LEU193      0.0001
    257  CD2      -29.1360   26.6210   16.9140 C.3   193  LEU193      0.0001
@<TRIPOS>BOND
     1   192   191   ar
     2   192   194   ar
     3   190   191    1
     4   190   187    1
     5    92    91    2
     6   191   193   ar
     7   194   195   ar
     8    82    81    2
     9    81    80    1
    10    93    91   am
    11    79    80    1
    12   186   187    1
    13   103   102    1
    14   187   188    1
    15    91    90    1
    16    86    87    1
    17    80    83    1
    18   104   102    1
    19   195   193   ar
    20   195   197   ar
    21   193   196   ar
    22   102   101    2
    23    90    87    1
    24    87    88    1
    25   197   199   ar
    26   196   198   ar
    27   188   189    2
    28   188   200   am
    29   101   100    1
    30    74    73    2
    31    83    84    1
    32    83    85    1
    33   100    99    1
    34   200   201    1
    35   199   198   ar
    36    94    88   am
    37    94    95    1
    38    73    72    1
    39    88    89    2
    40    99    98    1
    41    98    95    1
    42    27    26    2
    43    26    25    1
    44   206   204    1
    45   201   204    1
    46   201   202    1
    47    95    96    1
    48   207   208    1
    49    72    75    1
    50    72    71    1
    51   204   205    1
    52   202   203    2
    53    97    96    2
    54    75    76    1
    55    25    28    1
    56    25    24    1
    57    96   105   am
    58   211   208    1
    59   211   212    1
    60   208   209    1
    61   213   212   ar
    62   213   215   ar
    63   212   214   ar
    64   105   106    1
    65   215   217   ar
    66    76    78    1
    67    76    77    1
    68   209   219   am
    69   209   210    2
    70   219   220    1
    71   214   216   ar
    72   107   108    2
    73   107   106    1
    74   106   109    1
    75    23    22    1
    76   217   216   ar
    77   217   218    1
    78   112   114   ar
    79   112   110   ar
    80    15    14    2
    81   114   115   ar
    82    21    22   ar
    83    21    19   ar
    84    14    13    1
    85    22    20   ar
    86   220   223    1
    87   220   221    1
    88    67    66    2
    89   223   225    1
    90   223   224    1
    91   109   110    1
    92    66    65    1
    93   221   222    2
    94   110   111   ar
    95     1     2    1
    96    19    17   ar
    97    20    18   ar
    98    70    68    1
    99   115   113   ar
   100    13    12    1
   101    13    16    1
   102    17    18   ar
   103    17    16    1
   104    65    68    1
   105    65    64    1
   106   111   113   ar
   107     2     3    1
   108     2     5    1
   109    68    69    1
   110     3     4    2
   111     5     6    1
   112   250   251    1
   113   123   121    1
   114   120   121    1
   115   120   117    1
   116   232   231    1
   117   116   117    1
   118   121   122    1
   119   117   118    1
   120   255   256    1
   121   255   254    1
   122   255   257    1
   123   132   130   ar
   124   132   133   ar
   125     6     7   ar
   126     6     8   ar
   127   251   254    1
   128   251   252    1
   129     7     9   ar
   130   231   233    1
   131   231   230    1
   132   135   133   ar
   133   135   137   ar
   134    35    33    1
   135   130   129   ar
   136   133   131   ar
   137   252   253    2
   138     8    10   ar
   139   118   119    2
   140   137   136   ar
   141     9    11   ar
   142   230   227    1
   143    29    30    1
   144   129   131   ar
   145   129   128    1
   146   131   134   ar
   147    62    60    1
   148    33    30    1
   149    33    34    1
   150    58    59    2
   151    58    57    1
   152   184   183    1
   153    30    31    1
   154    10    11   ar
   155   136   134   ar
   156   226   227    1
   157   182   181    2
   158   240   239    1
   159   181   180    1
   160   128   125    1
   161   248   247    1
   162   227   228    1
   163    57    60    1
   164    57    56    1
   165    60    61    1
   166   124   125    1
   167   246   247    1
   168   246   243    1
   169   183   180    1
   170   183   185    1
   171   244   245    2
   172   244   243    1
   173   180   179    1
   174   228   229    2
   175   147   148   ar
   176   147   145   ar
   177    31    32    2
   178   125   126    1
   179   247   249    1
   180   238   239    1
   181   238   235    1
   182   239   241    1
   183   243   242    1
   184    61    63    1
   185   148   146   ar
   186   145   143   ar
   187   237   236    2
   188   236   235    1
   189   126   138   am
   190   126   127    2
   191   235   234    1
   192   159   158   ar
   193   159   157   ar
   194   138   139    1
   195   158   156   ar
   196   146   144   ar
   197   143   144   ar
   198   143   142    1
   199    41    42    1
   200    41    43    1
   201    41    40    1
   202    36    37    1
   203   157   155   ar
   204   142   139    1
   205   139   140    1
   206   156   154   ar
   207    40    37    1
   208    37    38    1
   209    52    50   ar
   210    52    54   ar
   211   177   176    1
   212   155   154   ar
   213    50    49   ar
   214   154   153    1
   215   140   141    2
   216   171   170    1
   217   169   170   ar
   218   169   167   ar
   219   178   176    1
   220    38    39    2
   221    55    54    1
   222    46    47    2
   223    46    45    1
   224    54    53   ar
   225   176   173    1
   226   170   168   ar
   227   149   150    1
   228    49    48    1
   229    49    51   ar
   230   167   165   ar
   231   153   150    1
   232    48    45    1
   233    45    44    1
   234   150   151    1
   235   173   174    1
   236   173   172    1
   237    53    51   ar
   238   174   175    2
   239   168   166   ar
   240   165   166   ar
   241   165   164    1
   242   164   161    1
   243   151   152    2
   244   161   160    1
   245   161   162    1
   246   163   162    2
