@<TRIPOS>MOLECULE
tmp/2d4vD00.pdb
 110 101 0 0 0
SMALL
GASTEIGER

@<TRIPOS>ATOM
      1  N         25.7660   99.1760   51.2630 N.3   101  LEU101     -0.1245
      2  CA        26.8930  100.0400   50.9010 C.3   101  LEU101      0.1561
      3  C         26.3930  101.1700   49.9990 C.2   101  LEU101      0.2260
      4  O         25.5420  100.9650   49.1140 O.2   101  LEU101     -0.2867
      5  CB        28.0270   99.2630   50.2070 C.3   101  LEU101      0.0270
      6  CG        28.8140   98.2960   51.1070 C.3   101  LEU101      0.0019
      7  CD1       29.6890   97.3160   50.3040 C.3   101  LEU101      0.0001
      8  CD2       29.7190   99.0830   52.0990 C.3   101  LEU101      0.0001
      9  N         26.3270  103.9040   47.1030 N.3   103  THR103     -0.1218
     10  CA        26.7780  104.1540   45.7380 C.3   103  THR103      0.1862
     11  C         26.3170  105.5600   45.3600 C.2   103  THR103      0.2287
     12  O         25.1230  105.8430   45.3970 O.2   103  THR103     -0.2866
     13  CB        26.1330  103.1420   44.7700 C.3   103  THR103      0.1770
     14  OG1       26.4710  101.8090   45.1860 O.3   103  THR103     -0.2211
     15  CG2       26.7260  103.2900   43.3710 C.3   103  THR103      0.0375
     16  N         29.3170  101.1640   42.0300 N.3   111  SER111     -0.1217
     17  CA        28.7290  100.3960   43.1280 C.3   111  SER111      0.1889
     18  C         29.6120   99.2640   43.6640 C.2   111  SER111      0.2288
     19  O         29.9810   98.3430   42.9160 O.2   111  SER111     -0.2866
     20  CB        27.4060   99.7760   42.6670 C.3   111  SER111      0.2089
     21  OG        26.9280   98.8370   43.6410 O.3   111  SER111     -0.2183
     22  N         28.5590   97.1010   45.7560 N.3   113  ASN113     -0.1225
     23  CA        27.6640   95.9730   45.8080 C.3   113  ASN113      0.1785
     24  C         27.7630   95.1630   44.5320 C.2   113  ASN113      0.2597
     25  O         27.9300   93.9560   44.5830 O.2   113  ASN113     -0.2718
     26  CB        26.2510   96.4730   46.0470 C.3   113  ASN113      0.1169
     27  CG        26.1670   97.3040   47.3100 C.2   113  ASN113      0.2627
     28  OD1       26.6170   96.8570   48.3620 O.2   113  ASN113     -0.2716
     29  ND2       25.6670   98.5500   47.1980 N.am  113  ASN113     -0.0877
     30  N         27.6950   95.8510   43.3900 N.am  114  VAL114     -0.1980
     31  CA        27.8050   95.2040   42.1050 C.3   114  VAL114      0.1595
     32  C         29.2160   94.6810   41.9220 C.2   114  VAL114      0.2287
     33  O         29.4050   93.5950   41.3840 O.2   114  VAL114     -0.2864
     34  CB        27.4300   96.1740   40.9390 C.3   114  VAL114      0.0276
     35  CG1       27.7050   95.5230   39.5720 C.3   114  VAL114      0.0022
     36  CG2       25.9550   96.5730   41.0490 C.3   114  VAL114      0.0022
     37  N         29.5450   91.3930   43.5240 N.3   117  ARG117     -0.1245
     38  CA        28.7990   90.3820   42.7710 C.3   117  ARG117      0.1563
     39  C         29.5980   89.9470   41.5400 C.2   117  ARG117      0.2260
     40  O         29.6670   88.7650   41.2030 O.2   117  ARG117     -0.2867
     41  CB        27.4710   90.9830   42.3430 C.3   117  ARG117      0.0307
     42  CG        26.5260   91.2260   43.5150 C.3   117  ARG117      0.0489
     43  CD        25.3010   92.0300   43.1220 C.3   117  ARG117      0.2205
     44  NE        24.5250   92.3840   44.2940 N.pl3 117  ARG117     -0.0865
     45  CZ        23.6710   93.3910   44.3510 C.cat 117  ARG117      0.5346
     46  NH1       23.4480   94.1430   43.2710 N.pl3 117  ARG117      0.1354
     47  NH2       23.0310   93.6460   45.4890 N.pl3 117  ARG117      0.1354
     48  N         15.8510   86.5090   46.1220 N.3   127  ARG127     -0.1245
     49  CA        15.0750   87.3350   47.0640 C.3   127  ARG127      0.1563
     50  C         13.6590   86.8040   47.2850 C.2   127  ARG127      0.2260
     51  O         12.7810   87.0190   46.4750 O.2   127  ARG127     -0.2867
     52  CB        14.9840   88.7770   46.5540 C.3   127  ARG127      0.0307
     53  CG        16.3330   89.5090   46.6820 C.3   127  ARG127      0.0489
     54  CD        16.3600   90.8530   46.0880 C.3   127  ARG127      0.2205
     55  NE        17.6050   91.5290   46.4160 N.pl3 127  ARG127     -0.0865
     56  CZ        17.9240   92.7120   45.9420 C.cat 127  ARG127      0.5346
     57  NH1       17.0930   93.3220   45.1160 N.pl3 127  ARG127      0.1354
     58  NH2       19.0710   93.2820   46.2920 N.pl3 127  ARG127      0.1354
     59  N         16.9640   86.9830   40.2780 N.3   151  ARG151     -0.1245
     60  CA        17.3730   88.1400   39.4850 C.3   151  ARG151      0.1563
     61  C         18.7750   87.9150   38.9720 C.2   151  ARG151      0.2260
     62  O         19.7080   87.7050   39.7670 O.2   151  ARG151     -0.2867
     63  CB        17.3350   89.3750   40.4020 C.3   151  ARG151      0.0307
     64  CG        18.1320   90.6030   39.9040 C.3   151  ARG151      0.0489
     65  CD        18.1990   91.7500   40.9450 C.3   151  ARG151      0.2205
     66  NE        19.0010   92.8810   40.4680 N.pl3 151  ARG151     -0.0865
     67  CZ        19.5460   93.8010   41.2590 C.cat 151  ARG151      0.5346
     68  NH1       19.3560   93.7570   42.5750 N.pl3 151  ARG151      0.1354
     69  NH2       20.2740   94.7800   40.7490 N.pl3 151  ARG151      0.1354
     70  N         23.8250   96.7770   34.2540 N.3   158  TYR158     -0.1241
     71  CA        24.5220   96.8760   35.5330 C.3   158  TYR158      0.1605
     72  C         26.0010   96.7030   35.3840 C.2   158  TYR158      0.2264
     73  O         26.7390   96.9260   36.3410 O.2   158  TYR158     -0.2867
     74  CB        24.0360   95.8030   36.5010 C.3   158  TYR158      0.0534
     75  CG        22.8480   96.2500   37.2640 C.ar  158  TYR158     -0.0201
     76  CD1       21.7370   96.7330   36.6100 C.ar  158  TYR158     -0.0009
     77  CD2       22.8410   96.2160   38.6500 C.ar  158  TYR158     -0.0009
     78  CE1       20.6460   97.1620   37.2970 C.ar  158  TYR158      0.0417
     79  CE2       21.7440   96.6420   39.3440 C.ar  158  TYR158      0.0417
     80  CZ        20.6560   97.1120   38.6640 C.ar  158  TYR158      0.1957
     81  OH        19.5850   97.5270   39.3750 O.3   158  TYR158     -0.2866
     82  N         15.6710   94.2420   40.0500 N.3   318  ASP318     -0.1239
     83  CA        15.8190   95.3170   41.0270 C.3   318  ASP318      0.1674
     84  C         14.4660   96.0040   41.2500 C.2   318  ASP318      0.2266
     85  O         14.0210   96.1640   42.3970 O.2   318  ASP318     -0.2867
     86  CB        16.8590   96.3280   40.5340 C.3   318  ASP318      0.1410
     87  CG        17.0120   97.5190   41.4620 C.2   318  ASP318      0.3668
     88  OD1       17.1530   98.6670   40.9650 O.co2 318  ASP318     -0.2456
     89  OD2       17.0140   97.3990   42.7030 O.co2 318  ASP318     -0.2456
     90  N         22.5270   89.4390   52.1120 N.3   347  GLU347     -0.1231
     91  CA        22.3860   90.8800   52.1450 C.3   347  GLU347      0.1699
     92  C         20.9360   91.3130   51.9650 C.2   347  GLU347      0.2592
     93  O         20.2030   90.7260   51.1740 O.2   347  GLU347     -0.2718
     94  CB        23.2380   91.4660   51.0170 C.3   347  GLU347      0.0402
     95  CG        22.7180   92.7350   50.3610 C.3   347  GLU347      0.1161
     96  CD        23.4030   93.0500   49.0390 C.2   347  GLU347      0.3649
     97  OE1       24.1660   94.0430   48.9740 O.co2 347  GLU347     -0.2457
     98  OE2       23.1750   92.3330   48.0350 O.co2 347  GLU347     -0.2457
     99  N         20.5410   92.3620   52.6800 N.am  348  ALA348     -0.1966
    100  CA        19.1760   92.8720   52.5780 C.3   348  ALA348      0.1728
    101  C         18.9540   93.5500   51.2410 C.2   348  ALA348      0.2616
    102  O         19.8950   93.9460   50.5620 O.2   348  ALA348     -0.2715
    103  CB        18.8990   93.8560   53.7160 C.3   348  ALA348      0.0334
    104  N         17.6910   93.6580   50.8530 N.am  349  THR349     -0.1951
    105  CA        17.3500   94.3630   49.6410 C.3   349  THR349      0.1897
    106  C         17.6140   95.8720   49.7690 C.2   349  THR349      0.2313
    107  O         17.9540   96.5400   48.7960 O.2   349  THR349     -0.2863
    108  CB        15.8840   94.0970   49.3190 C.3   349  THR349      0.1794
    109  OG1       15.7580   92.7320   48.8700 O.3   349  THR349     -0.2208
    110  CG2       15.4620   94.9020   48.1000 C.3   349  THR349      0.0378
@<TRIPOS>BOND
     1    70    71    1
     2    72    71    1
     3    72    73    2
     4    71    74    1
     5    74    75    1
     6    76    75   ar
     7    76    78   ar
     8    75    77   ar
     9    78    80   ar
    10    77    79   ar
    11    80    79   ar
    12    80    81    1
    13    61    60    1
    14    61    62    2
    15    60    59    1
    16    60    63    1
    17    35    34    1
    18    64    63    1
    19    64    65    1
    20    82    83    1
    21    66    65    1
    22    66    67    2
    23    86    83    1
    24    86    87    1
    25    69    67    1
    26    34    36    1
    27    34    31    1
    28    88    87   ar
    29    83    84    1
    30    40    39    2
    31    84    85    2
    32    67    68    1
    33    33    32    2
    34    87    89   ar
    35    39    38    1
    36    32    31    1
    37    16    17    1
    38    31    30    1
    39    41    38    1
    40    41    42    1
    41    20    17    1
    42    20    21    1
    43    38    37    1
    44    19    18    2
    45    43    42    1
    46    43    44    1
    47    17    18    1
    48    46    45    1
    49    15    13    1
    50    30    24   am
    51    44    45    2
    52    45    47    1
    53    24    25    2
    54    24    23    1
    55    13    14    1
    56    13    10    1
    57    57    56    1
    58    11    12    2
    59    11    10    1
    60    10     9    1
    61    22    23    1
    62    23    26    1
    63    56    58    1
    64    56    55    2
    65    26    27    1
    66    54    55    1
    67    54    53    1
    68    48    49    1
    69    51    50    2
    70    52    53    1
    71    52    49    1
    72    49    50    1
    73    29    27   am
    74    27    28    2
    75    98    96   ar
    76   110   108    1
    77   107   106    2
    78   109   108    1
    79    97    96   ar
    80    96    95    1
    81     4     3    2
    82   108   105    1
    83   105   106    1
    84   105   104    1
    85     3     2    1
    86     5     2    1
    87     5     6    1
    88     7     6    1
    89    95    94    1
    90   102   101    2
    91   104   101   am
    92     2     1    1
    93    94    91    1
    94     6     8    1
    95    93    92    2
    96   101   100    1
    97    92    91    1
    98    92    99   am
    99    90    91    1
   100   100    99    1
   101   100   103    1
