@<TRIPOS>MOLECULE
tmp/2d4vD02.pdb
 204 195 0 0 0
SMALL
GASTEIGER

@<TRIPOS>ATOM
      1  N         22.6110  102.9190   57.8300 N.3    35  ILE35      -0.1245
      2  CA        21.9260  102.0380   58.7940 C.3    35  ILE35       0.1561
      3  C         22.5950  100.6750   58.9980 C.2    35  ILE35       0.2260
      4  O         22.1660   99.8770   59.8290 O.2    35  ILE35      -0.2867
      5  CB        20.4110  101.8700   58.4540 C.3    35  ILE35       0.0252
      6  CG1       20.2380  101.2330   57.0540 C.3    35  ILE35       0.0019
      7  CG2       19.6700  103.2200   58.6040 C.3    35  ILE35       0.0019
      8  CD1       18.8270  100.6830   56.8260 C.3    35  ILE35       0.0001
      9  N         21.5620   97.9110   61.6870 N.3    39  VAL39      -0.1245
     10  CA        21.0450   96.5770   61.4090 C.3    39  VAL39       0.1561
     11  C         22.0380   95.4470   61.5830 C.2    39  VAL39       0.2260
     12  O         21.6470   94.3470   61.9210 O.2    39  VAL39      -0.2867
     13  CB        20.3320   96.5210   60.0470 C.3    39  VAL39       0.0252
     14  CG1       19.2830   97.6330   59.9790 C.3    39  VAL39       0.0019
     15  CG2       21.3220   96.6610   58.8740 C.3    39  VAL39       0.0019
     16  N         26.5390   90.9230   54.6020 N.3    98  LYS98      -0.1245
     17  CA        26.8970   92.3370   54.6010 C.3    98  LYS98       0.1561
     18  C         25.7040   93.2620   54.7630 C.2    98  LYS98       0.2260
     19  O         24.5890   92.9630   54.3370 O.2    98  LYS98      -0.2867
     20  CB        27.6060   92.7240   53.2940 C.3    98  LYS98       0.0271
     21  CG        26.6460   92.6420   52.0640 C.3    98  LYS98       0.0035
     22  CD        27.3470   92.9810   50.7260 C.3    98  LYS98       0.0206
     23  CE        27.5350   94.4910   50.5280 C.3    98  LYS98       0.1093
     24  NZ        26.2120   95.2150   50.4480 N.3    98  LYS98      -0.1314
     25  N         24.2480   97.2680   53.9890 N.3   100  PRO100     -0.2102
     26  CA        24.2090   98.0370   52.7390 C.3   100  PRO100      0.1504
     27  C         25.4720   98.8660   52.5300 C.2   100  PRO100      0.2576
     28  O         26.1530   99.2170   53.4970 O.2   100  PRO100     -0.2718
     29  CB        23.0270   99.0040   52.9270 C.3   100  PRO100      0.0282
     30  CG        22.6440   98.9420   54.3750 C.3   100  PRO100      0.0208
     31  CD        23.3090   97.7510   55.0110 C.3   100  PRO100      0.0893
     32  N         25.7660   99.1760   51.2630 N.am  101  LEU101     -0.1966
     33  CA        26.8930  100.0400   50.9010 C.3   101  LEU101      0.1728
     34  C         26.3930  101.1700   49.9990 C.2   101  LEU101      0.2616
     35  O         25.5420  100.9650   49.1140 O.2   101  LEU101     -0.2715
     36  CB        28.0270   99.2630   50.2070 C.3   101  LEU101      0.0311
     37  CG        28.8140   98.2960   51.1070 C.3   101  LEU101      0.0022
     38  CD1       29.6890   97.3160   50.3040 C.3   101  LEU101      0.0001
     39  CD2       29.7190   99.0830   52.0990 C.3   101  LEU101      0.0001
     40  N         26.9450  102.3600   50.2300 N.am  102  GLU102     -0.1963
     41  CA        26.5350  103.5620   49.4860 C.3   102  GLU102      0.1733
     42  C         27.1730  103.6710   48.1130 C.2   102  GLU102      0.2617
     43  O         28.3800  103.5250   47.9680 O.2   102  GLU102     -0.2715
     44  CB        26.8610  104.8410   50.3000 C.3   102  GLU102      0.0429
     45  CG        26.4310  106.1400   49.5990 C.3   102  GLU102      0.1163
     46  CD        26.7840  107.4030   50.4010 C.2   102  GLU102      0.3649
     47  OE1       26.9380  107.3230   51.6410 O.co2 102  GLU102     -0.2457
     48  OE2       26.8770  108.4980   49.8020 O.co2 102  GLU102     -0.2457
     49  N         26.3270  103.9040   47.1030 N.am  103  THR103     -0.1951
     50  CA        26.7780  104.1540   45.7380 C.3   103  THR103      0.1897
     51  C         26.3170  105.5600   45.3600 C.2   103  THR103      0.2313
     52  O         25.1230  105.8430   45.3970 O.2   103  THR103     -0.2863
     53  CB        26.1330  103.1420   44.7700 C.3   103  THR103      0.1794
     54  OG1       26.4710  101.8090   45.1860 O.3   103  THR103     -0.2208
     55  CG2       26.7260  103.2900   43.3710 C.3   103  THR103      0.0378
     56  N         25.2900  108.9140   43.1430 N.3   105  VAL105     -0.1245
     57  CA        24.5160  109.1460   41.9240 C.3   105  VAL105      0.1561
     58  C         25.2040  110.1720   41.0020 C.2   105  VAL105      0.2260
     59  O         25.6870  111.2030   41.4700 O.2   105  VAL105     -0.2867
     60  CB        23.1550  109.7500   42.2880 C.3   105  VAL105      0.0252
     61  CG1       22.3830  110.2520   41.0120 C.3   105  VAL105      0.0019
     62  CG2       22.3030  108.7760   43.1050 C.3   105  VAL105      0.0019
     63  N         28.5590   97.1010   45.7560 N.3   113  ASN113     -0.1240
     64  CA        27.6640   95.9730   45.8080 C.3   113  ASN113      0.1653
     65  C         27.7630   95.1630   44.5320 C.2   113  ASN113      0.2266
     66  O         27.9300   93.9560   44.5830 O.2   113  ASN113     -0.2867
     67  CB        26.2510   96.4730   46.0470 C.3   113  ASN113      0.1155
     68  CG        26.1670   97.3040   47.3100 C.2   113  ASN113      0.2627
     69  OD1       26.6170   96.8570   48.3620 O.2   113  ASN113     -0.2716
     70  ND2       25.6670   98.5500   47.1980 N.am  113  ASN113     -0.0877
     71  N         29.5450   91.3930   43.5240 N.3   117  ARG117     -0.1245
     72  CA        28.7990   90.3820   42.7710 C.3   117  ARG117      0.1563
     73  C         29.5980   89.9470   41.5400 C.2   117  ARG117      0.2260
     74  O         29.6670   88.7650   41.2030 O.2   117  ARG117     -0.2867
     75  CB        27.4710   90.9830   42.3430 C.3   117  ARG117      0.0307
     76  CG        26.5260   91.2260   43.5150 C.3   117  ARG117      0.0489
     77  CD        25.3010   92.0300   43.1220 C.3   117  ARG117      0.2205
     78  NE        24.5250   92.3840   44.2940 N.pl3 117  ARG117     -0.0865
     79  CZ        23.6710   93.3910   44.3510 C.cat 117  ARG117      0.5346
     80  NH1       23.4480   94.1430   43.2710 N.pl3 117  ARG117      0.1354
     81  NH2       23.0310   93.6460   45.4890 N.pl3 117  ARG117      0.1354
     82  N         15.8510   86.5090   46.1220 N.3   127  ARG127     -0.1245
     83  CA        15.0750   87.3350   47.0640 C.3   127  ARG127      0.1563
     84  C         13.6590   86.8040   47.2850 C.2   127  ARG127      0.2260
     85  O         12.7810   87.0190   46.4750 O.2   127  ARG127     -0.2867
     86  CB        14.9840   88.7770   46.5540 C.3   127  ARG127      0.0307
     87  CG        16.3330   89.5090   46.6820 C.3   127  ARG127      0.0489
     88  CD        16.3600   90.8530   46.0880 C.3   127  ARG127      0.2205
     89  NE        17.6050   91.5290   46.4160 N.pl3 127  ARG127     -0.0865
     90  CZ        17.9240   92.7120   45.9420 C.cat 127  ARG127      0.5346
     91  NH1       17.0930   93.3220   45.1160 N.pl3 127  ARG127      0.1354
     92  NH2       19.0710   93.2820   46.2920 N.pl3 127  ARG127      0.1354
     93  N         10.9720   97.5250   52.1840 N.3   331  ILE331     -0.1231
     94  CA        12.2600   96.8630   52.0530 C.3   331  ILE331      0.1692
     95  C         12.9570   96.6180   53.3980 C.2   331  ILE331      0.2592
     96  O         14.0680   96.1040   53.4520 O.2   331  ILE331     -0.2718
     97  CB        13.1400   97.5990   51.0430 C.3   331  ILE331      0.0266
     98  CG1       13.3590   99.0450   51.4560 C.3   331  ILE331      0.0019
     99  CG2       12.4460   97.5890   49.6510 C.3   331  ILE331      0.0020
    100  CD1       14.2430   99.8380   50.4470 C.3   331  ILE331      0.0001
    101  N         12.2660   96.9400   54.4760 N.am  332  GLY332     -0.1957
    102  CA        12.7450   96.5710   55.8020 C.3   332  GLY332      0.1869
    103  C         12.3060   95.1640   56.1730 C.2   332  GLY332      0.2309
    104  O         12.6390   94.6840   57.2520 O.2   332  GLY332     -0.2863
    105  N         22.5270   89.4390   52.1120 N.3   347  GLU347     -0.1231
    106  CA        22.3860   90.8800   52.1450 C.3   347  GLU347      0.1699
    107  C         20.9360   91.3130   51.9650 C.2   347  GLU347      0.2592
    108  O         20.2030   90.7260   51.1740 O.2   347  GLU347     -0.2718
    109  CB        23.2380   91.4660   51.0170 C.3   347  GLU347      0.0402
    110  CG        22.7180   92.7350   50.3610 C.3   347  GLU347      0.1161
    111  CD        23.4030   93.0500   49.0390 C.2   347  GLU347      0.3649
    112  OE1       24.1660   94.0430   48.9740 O.co2 347  GLU347     -0.2457
    113  OE2       23.1750   92.3330   48.0350 O.co2 347  GLU347     -0.2457
    114  N         20.5410   92.3620   52.6800 N.am  348  ALA348     -0.1966
    115  CA        19.1760   92.8720   52.5780 C.3   348  ALA348      0.1728
    116  C         18.9540   93.5500   51.2410 C.2   348  ALA348      0.2617
    117  O         19.8950   93.9460   50.5620 O.2   348  ALA348     -0.2715
    118  CB        18.8990   93.8560   53.7160 C.3   348  ALA348      0.0334
    119  N         17.6910   93.6580   50.8530 N.am  349  THR349     -0.1937
    120  CA        17.3500   94.3630   49.6410 C.3   349  THR349      0.2028
    121  C         17.6140   95.8720   49.7690 C.2   349  THR349      0.2642
    122  O         17.9540   96.5400   48.7960 O.2   349  THR349     -0.2714
    123  CB        15.8840   94.0970   49.3190 C.3   349  THR349      0.1808
    124  OG1       15.7580   92.7320   48.8700 O.3   349  THR349     -0.2208
    125  CG2       15.4620   94.9020   48.1000 C.3   349  THR349      0.0379
    126  N         17.4490   96.4050   50.9690 N.am  350  HIS350     -0.1959
    127  CA        17.5330   97.8470   51.1820 C.3   350  HIS350      0.1787
    128  C         18.9270   98.4830   51.1200 C.2   350  HIS350      0.2621
    129  O         19.9480   97.8120   51.2030 O.2   350  HIS350     -0.2715
    130  CB        16.8630   98.2320   52.4970 C.3   350  HIS350      0.0785
    131  CG        17.5760   97.7130   53.7250 C.ar  350  HIS350      0.0821
    132  ND1       18.7770   98.2280   54.1590 N.ar  350  HIS350     -0.2267
    133  CD2       17.2360   96.7490   54.6210 C.ar  350  HIS350      0.1154
    134  CE1       19.1590   97.5950   55.2630 C.ar  350  HIS350      0.1986
    135  NE2       18.2370   96.6930   55.5650 N.ar  350  HIS350     -0.2212
    136  N         18.9330   99.8020   51.0150 N.am  351  GLY351     -0.1940
    137  CA        20.1600  100.5700   50.9800 C.3   351  GLY351      0.2014
    138  C         20.5670  101.1200   52.3330 C.2   351  GLY351      0.2640
    139  O         20.1960  100.5880   53.3890 O.2   351  GLY351     -0.2714
    140  N         21.3080  102.2120   52.3000 N.am  352  THR352     -0.1936
    141  CA        21.9010  102.7550   53.5150 C.3   352  THR352      0.2028
    142  C         20.9680  103.6860   54.2510 C.2   352  THR352      0.2642
    143  O         21.3000  104.1390   55.3420 O.2   352  THR352     -0.2714
    144  CB        23.1690  103.5170   53.1610 C.3   352  THR352      0.1808
    145  OG1       22.8250  104.5350   52.2280 O.3   352  THR352     -0.2208
    146  CG2       24.1580  102.6080   52.3930 C.3   352  THR352      0.0379
    147  N         19.8300  103.9970   53.6320 N.am  353  ALA353     -0.1963
    148  CA        18.7980  104.8190   54.2650 C.3   353  ALA353      0.1713
    149  C         19.2910  106.0900   54.9520 C.2   353  ALA353      0.2458
    150  O         19.0950  106.2490   56.1700 O.2   353  ALA353     -0.2730
    151  CB        17.9750  103.9480   55.2680 C.3   353  ALA353      0.0333
    152  N         19.9010  107.0100   54.1920 N.am  354  PRO354     -0.2716
    153  CA        20.4840  108.2190   54.7760 C.3   354  PRO354      0.1536
    154  C         19.4760  109.0500   55.5560 C.2   354  PRO354      0.2599
    155  O         19.9070  109.7750   56.4540 O.2   354  PRO354     -0.2715
    156  CB        21.0020  109.0060   53.5480 C.3   354  PRO354      0.0310
    157  CG        20.2580  108.4000   52.3710 C.3   354  PRO354      0.0237
    158  CD        20.1250  106.9400   52.7350 C.3   354  PRO354      0.0939
    159  N         18.1880  108.9610   55.2400 N.am  355  ASP355     -0.1958
    160  CA        17.2100  109.7420   55.9800 C.3   355  ASP355      0.1840
    161  C         17.0540  109.3200   57.4580 C.2   355  ASP355      0.2621
    162  O         16.5780  110.1080   58.2730 O.2   355  ASP355     -0.2715
    163  CB        15.8460  109.8060   55.2490 C.3   355  ASP355      0.1450
    164  CG        15.2050  108.4370   55.0500 C.2   355  ASP355      0.3671
    165  OD1       15.8740  107.4100   55.3150 O.co2 355  ASP355     -0.2456
    166  OD2       14.0370  108.2900   54.6020 O.co2 355  ASP355     -0.2456
    167  N         17.4640  108.0960   57.8070 N.am  356  ILE356     -0.1977
    168  CA        17.3270  107.6250   59.1950 C.3   356  ILE356      0.1596
    169  C         18.6260  107.0640   59.7750 C.2   356  ILE356      0.2287
    170  O         18.6460  106.6110   60.9210 O.2   356  ILE356     -0.2864
    171  CB        16.2370  106.5470   59.3340 C.3   356  ILE356      0.0276
    172  CG1       16.4980  105.4070   58.3270 C.3   356  ILE356      0.0022
    173  CG2       14.8400  107.1330   59.1730 C.3   356  ILE356      0.0022
    174  CD1       15.8060  104.1330   58.6870 C.3   356  ILE356      0.0001
    175  N         16.6370  103.9030   64.1690 N.3   361  LYS361     -0.1231
    176  CA        15.2630  103.6640   63.7540 C.3   361  LYS361      0.1693
    177  C         15.0880  102.4790   62.8120 C.2   361  LYS361      0.2592
    178  O         14.0130  101.8720   62.7700 O.2   361  LYS361     -0.2718
    179  CB        14.7500  104.9020   63.0120 C.3   361  LYS361      0.0285
    180  CG        14.5690  106.1350   63.9290 C.3   361  LYS361      0.0035
    181  CD        14.0850  107.3140   63.0910 C.3   361  LYS361      0.0206
    182  CE        13.7100  108.5360   63.9390 C.3   361  LYS361      0.1093
    183  NZ        13.2940  109.6380   62.9940 N.3   361  LYS361     -0.1314
    184  N         16.1140  102.1790   62.0300 N.am  362  ALA362     -0.1966
    185  CA        16.0190  101.1410   60.9750 C.3   362  ALA362      0.1728
    186  C         15.4250   99.8190   61.4000 C.2   362  ALA362      0.2616
    187  O         15.6660   99.3420   62.5130 O.2   362  ALA362     -0.2715
    188  CB        17.4130  100.8800   60.3500 C.3   362  ALA362      0.0334
    189  N         14.6660   99.2090   60.4850 N.am  363  ASN363     -0.1972
    190  CA        14.1280   97.8950   60.6890 C.3   363  ASN363      0.1688
    191  C         15.2230   96.8700   60.3820 C.2   363  ASN363      0.2292
    192  O         15.7100   96.7940   59.2470 O.2   363  ASN363     -0.2864
    193  CB        12.9210   97.6980   59.7360 C.3   363  ASN363      0.1181
    194  CG        12.1280   96.4480   60.0450 C.2   363  ASN363      0.2629
    195  OD1       12.6200   95.5300   60.7270 O.2   363  ASN363     -0.2716
    196  ND2       10.8840   96.3960   59.5540 N.am  363  ASN363     -0.0877
    197  N          9.1500  102.1510   60.3190 N.3   403  ASP403     -0.1239
    198  CA         8.7360  101.9660   58.9260 C.3   403  ASP403      0.1674
    199  C          7.3970  101.2520   58.8440 C.2   403  ASP403      0.2266
    200  O          6.5710  101.5420   57.9800 O.2   403  ASP403     -0.2867
    201  CB         9.8020  101.1950   58.1320 C.3   403  ASP403      0.1410
    202  CG        10.1370   99.8370   58.7490 C.2   403  ASP403      0.3668
    203  OD1       10.3070   99.7560   59.9960 O.co2 403  ASP403     -0.2456
    204  OD2       10.2820   98.8020   58.0520 O.co2 403  ASP403     -0.2456
@<TRIPOS>BOND
     1    58    59    2
     2    58    57    1
     3    61    60    1
     4    74    73    2
     5    73    72    1
     6    57    60    1
     7    57    56    1
     8    60    62    1
     9    75    72    1
    10    75    76    1
    11    72    71    1
    12    77    76    1
    13    77    78    1
    14    80    79    1
    15    55    53    1
    16    78    79    2
    17    79    81    1
    18    65    66    2
    19    65    64    1
    20    53    54    1
    21    53    50    1
    22    91    90    1
    23    51    52    2
    24    51    50    1
    25    50    49    1
    26    63    64    1
    27    64    67    1
    28    90    92    1
    29    90    89    2
    30    67    68    1
    31    88    89    1
    32    88    87    1
    33    82    83    1
    34    85    84    2
    35    86    87    1
    36    86    83    1
    37    83    84    1
    38    49    42   am
    39    70    68   am
    40    68    69    2
    41    43    42    2
    42   113   111   ar
    43   125   123    1
    44    42    41    1
    45   122   121    2
    46   124   123    1
    47   112   111   ar
    48   111   110    1
    49    35    34    2
    50   123   120    1
    51    41    40    1
    52    41    44    1
    53    45    44    1
    54    45    46    1
    55   120   121    1
    56   120   119    1
    57    99    97    1
    58   121   126   am
    59    48    46   ar
    60    34    40   am
    61    34    33    1
    62    36    33    1
    63    36    37    1
    64    38    37    1
    65   110   109    1
    66    46    47   ar
    67   100    98    1
    68    24    23    1
    69    23    22    1
    70   117   116    2
    71    22    21    1
    72   119   116   am
    73    33    32    1
    74   126   127    1
    75   137   136    1
    76   137   138    1
    77   136   128   am
    78   109   106    1
    79    97    98    1
    80    97    94    1
    81    37    39    1
    82   128   127    1
    83   128   129    2
    84   108   107    2
    85   127   130    1
    86   116   115    1
    87    32    27   am
    88   107   106    1
    89   107   114   am
    90    94    93    1
    91    94    95    1
    92    21    20    1
    93   105   106    1
    94   145   144    1
    95   140   138   am
    96   140   141    1
    97   138   139    2
    98   157   158    1
    99   157   156    1
   100   146   144    1
   101   130   131    1
   102    27    26    1
   103    27    28    2
   104   115   114    1
   105   115   118    1
   106   158   152    1
   107    26    29    1
   108    26    25    1
   109    29    30    1
   110   144   141    1
   111    20    17    1
   112    95    96    2
   113    95   101   am
   114   141   142    1
   115   156   153    1
   116   147   142   am
   117   147   148    1
   118   131   132   ar
   119   131   133   ar
   120    25    31    1
   121   132   134   ar
   122   152   153    1
   123   152   149   am
   124   142   143    2
   125   148   149    1
   126   148   151    1
   127    19    18    2
   128    30    31    1
   129   101   102    1
   130    17    16    1
   131    17    18    1
   132   166   164   ar
   133   133   135   ar
   134   153   154    1
   135   149   150    2
   136   164   163    1
   137   164   165   ar
   138   159   154   am
   139   159   160    1
   140   163   160    1
   141   134   135   ar
   142   154   155    2
   143   102   103    1
   144   160   161    1
   145   103   104    2
   146     8     6    1
   147     6     5    1
   148   161   167   am
   149   161   162    2
   150   167   168    1
   151     1     2    1
   152   200   199    2
   153   204   202   ar
   154   201   202    1
   155   201   198    1
   156   172   174    1
   157   172   171    1
   158     5     7    1
   159     5     2    1
   160   202   203   ar
   161     2     3    1
   162   199   198    1
   163    15    13    1
   164   198   197    1
   165     3     4    2
   166   173   171    1
   167   168   171    1
   168   168   169    1
   169   192   191    2
   170   196   194   am
   171   193   194    1
   172   193   190    1
   173   169   170    2
   174    14    13    1
   175   194   195    2
   176    13    10    1
   177   188   185    1
   178   191   190    1
   179   189   190    1
   180   189   186   am
   181   185   186    1
   182   185   184    1
   183   186   187    2
   184    10    11    1
   185    10     9    1
   186    11    12    2
   187   184   177   am
   188   178   177    2
   189   177   176    1
   190   183   182    1
   191   179   176    1
   192   179   180    1
   193   181   180    1
   194   181   182    1
   195   176   175    1
