@<TRIPOS>MOLECULE
tmp/2d4wB01.pdb
 79 77 0 0 0
SMALL
GASTEIGER

@<TRIPOS>ATOM
      1  N         39.2600    9.1120  -28.7770 N.3   309  VAL309     -0.1245
      2  CA        38.6130    8.2290  -29.7220 C.3   309  VAL309      0.1561
      3  C         37.9300    8.9880  -30.8690 C.2   309  VAL309      0.2260
      4  O         36.8840    9.6040  -30.6750 O.2   309  VAL309     -0.2867
      5  CB        37.6090    7.2770  -28.9920 C.3   309  VAL309      0.0252
      6  CG1       36.7800    6.4620  -30.0110 C.3   309  VAL309      0.0019
      7  CG2       38.3700    6.3570  -27.9830 C.3   309  VAL309      0.0019
      8  N         39.4130    5.6720  -34.1890 N.3   312  SER312     -0.1202
      9  CA        39.2420    4.3710  -33.5020 C.3   312  SER312      0.2020
     10  C         37.8130    3.8390  -33.4460 C.2   312  SER312      0.2618
     11  O         37.6050    2.6290  -33.3300 O.2   312  SER312     -0.2717
     12  CB        39.6350    4.4920  -32.0310 C.3   312  SER312      0.2103
     13  OG        40.9960    4.7940  -31.9150 O.3   312  SER312     -0.2182
     14  N         36.8350    4.7440  -33.4680 N.am  313  LEU313     -0.1979
     15  CA        35.4360    4.3520  -33.3320 C.3   313  LEU313      0.1596
     16  C         35.0090    3.3640  -34.4260 C.2   313  LEU313      0.2287
     17  O         34.6090    2.2490  -34.1320 O.2   313  LEU313     -0.2864
     18  CB        34.5490    5.6070  -33.2690 C.3   313  LEU313      0.0297
     19  CG        33.0330    5.4720  -33.0810 C.3   313  LEU313      0.0022
     20  CD1       32.7340    4.4430  -32.0470 C.3   313  LEU313      0.0001
     21  CD2       32.4510    6.8320  -32.6460 C.3   313  LEU313      0.0001
     22  N         36.8190    0.0980  -34.2660 N.3   316  TRP316     -0.1241
     23  CA        36.2480   -0.7250  -33.1810 C.3   316  TRP316      0.1605
     24  C         34.9560   -1.4260  -33.6030 C.2   316  TRP316      0.2264
     25  O         34.7700   -2.6250  -33.3600 O.2   316  TRP316     -0.2867
     26  CB        35.9880    0.1270  -31.9360 C.3   316  TRP316      0.0550
     27  CG        35.3930   -0.6320  -30.8300 C.ar  316  TRP316      0.0003
     28  CD1       36.0480   -1.4850  -29.9910 C.ar  316  TRP316      0.0946
     29  CD2       34.0230   -0.6460  -30.4250 C.ar  316  TRP316      0.0152
     30  NE1       35.1670   -2.0490  -29.1060 N.ar  316  TRP316     -0.2442
     31  CE2       33.9140   -1.5620  -29.3540 C.ar  316  TRP316      0.0810
     32  CE3       32.8620   -0.0070  -30.8780 C.ar  316  TRP316      0.0012
     33  CZ2       32.7000   -1.8330  -28.7050 C.ar  316  TRP316      0.0191
     34  CZ3       31.6420   -0.2800  -30.2330 C.ar  316  TRP316      0.0001
     35  CH2       31.5750   -1.1820  -29.1530 C.ar  316  TRP316      0.0015
     36  N         26.4730    8.7750  -30.9500 N.3   345  PHE345     -0.1227
     37  CA        27.5370    8.0450  -30.3090 C.3   345  PHE345      0.1736
     38  C         28.1790    8.9180  -29.2630 C.2   345  PHE345      0.2595
     39  O         28.5270   10.0600  -29.5290 O.2   345  PHE345     -0.2718
     40  CB        28.6360    7.6630  -31.3240 C.3   345  PHE345      0.0547
     41  CG        28.4870    6.2820  -31.9040 C.ar  345  PHE345     -0.0202
     42  CD1       28.3330    6.0930  -33.2730 C.ar  345  PHE345     -0.0042
     43  CD2       28.4920    5.1750  -31.0790 C.ar  345  PHE345     -0.0042
     44  CE1       28.2140    4.8090  -33.8040 C.ar  345  PHE345     -0.0003
     45  CE2       28.3620    3.8950  -31.5940 C.ar  345  PHE345     -0.0003
     46  CZ        28.2180    3.7000  -32.9510 C.ar  345  PHE345     -0.0000
     47  N         28.3480    8.3580  -28.0840 N.am  346  VAL346     -0.1966
     48  CA        29.0470    9.0030  -26.9900 C.3   346  VAL346      0.1715
     49  C         30.3480    8.2210  -26.7810 C.2   346  VAL346      0.2496
     50  O         30.4110    7.3460  -25.9150 O.2   346  VAL346     -0.2727
     51  CB        28.2310    8.9400  -25.6810 C.3   346  VAL346      0.0289
     52  CG1       29.0410    9.5280  -24.5150 C.3   346  VAL346      0.0023
     53  CG2       26.8930    9.6680  -25.8160 C.3   346  VAL346      0.0023
     54  N         31.3780    8.5370  -27.5660 N.am  347  PRO347     -0.2490
     55  CA        32.6480    7.8010  -27.5280 C.3   347  PRO347      0.1619
     56  C         33.3150    7.8870  -26.1890 C.2   347  PRO347      0.2605
     57  O         33.1910    8.8690  -25.4470 O.2   347  PRO347     -0.2715
     58  CB        33.5310    8.5200  -28.5520 C.3   347  PRO347      0.0570
     59  CG        32.6160    9.5790  -29.2390 C.2   347  PRO347     -0.0077
     60  CD        31.3660    9.6370  -28.5390 C.2   347  PRO347      0.0634
     61  N         34.0380    6.8220  -25.8950 N.am  348  ALA348     -0.1978
     62  CA        34.8210    6.7290  -24.6770 C.3   348  ALA348      0.1597
     63  C         35.6940    7.9620  -24.5720 C.2   348  ALA348      0.2287
     64  O         36.2520    8.4050  -25.5760 O.2   348  ALA348     -0.2864
     65  CB        35.6960    5.4610  -24.7060 C.3   348  ALA348      0.0319
     66  N         36.4450    5.7430  -19.7100 N.3   361  ALA361     -0.1245
     67  CA        36.6190    4.7050  -20.7290 C.3   361  ALA361      0.1562
     68  C         35.2980    4.1500  -21.2690 C.2   361  ALA361      0.2260
     69  O         35.2590    3.5180  -22.3390 O.2   361  ALA361     -0.2867
     70  CB        37.4770    3.5180  -20.1490 C.3   361  ALA361      0.0290
     71  N         31.6880    4.3380  -22.9250 N.3   363  GLY363     -0.1210
     72  CA        30.9040    5.1130  -23.8790 C.3   363  GLY363      0.1956
     73  C         29.5160    4.5150  -24.0670 C.2   363  GLY363      0.2611
     74  O         29.1220    3.5820  -23.3530 O.2   363  GLY363     -0.2717
     75  N         28.7760    5.0600  -25.0340 N.am  364  ALA364     -0.1979
     76  CA        27.4240    4.6320  -25.3020 C.3   364  ALA364      0.1597
     77  C         26.9750    4.9460  -26.7320 C.2   364  ALA364      0.2287
     78  O         27.6360    5.6340  -27.4720 O.2   364  ALA364     -0.2864
     79  CB        26.4380    5.2940  -24.3000 C.3   364  ALA364      0.0319
@<TRIPOS>BOND
     1    16    17    2
     2    16    15    1
     3    22    23    1
     4     8     9    1
     5    44    42   ar
     6    44    46   ar
     7    24    25    2
     8    24    23    1
     9     9    10    1
    10     9    12    1
    11    14    10   am
    12    14    15    1
    13    10    11    2
    14    15    18    1
    15    42    41   ar
    16    18    19    1
    17    23    26    1
    18    19    21    1
    19    19    20    1
    20    46    45   ar
    21    12    13    1
    22    26    27    1
    23    41    40    1
    24    41    43   ar
    25    45    43   ar
    26    40    37    1
    27    36    37    1
    28    32    29   ar
    29    32    34   ar
    30     3     4    2
    31     3     2    1
    32    27    29   ar
    33    27    28   ar
    34    29    31   ar
    35    37    38    1
    36    34    35   ar
    37     6     5    1
    38    28    30   ar
    39     2     5    1
    40     2     1    1
    41    39    38    2
    42    31    30   ar
    43    31    33   ar
    44    38    47   am
    45    59    58    1
    46    59    60    2
    47    35    33   ar
    48     5     7    1
    49    58    55    1
    50    60    54    1
    51    47    48    1
    52    54    55    1
    53    54    49   am
    54    55    56    1
    55    78    77    2
    56    48    49    1
    57    48    51    1
    58    49    50    2
    59    77    76    1
    60    56    61   am
    61    56    57    2
    62    61    62    1
    63    53    51    1
    64    51    52    1
    65    64    63    2
    66    76    75    1
    67    76    79    1
    68    75    73   am
    69    65    62    1
    70    62    63    1
    71    73    72    1
    72    73    74    2
    73    72    71    1
    74    69    68    2
    75    68    67    1
    76    67    70    1
    77    67    66    1
