@<TRIPOS>MOLECULE
tmp/2d4wB00.pdb
 135 130 0 0 0
SMALL
GASTEIGER

@<TRIPOS>ATOM
      1  N         57.1630    8.8230  -34.2770 N.3    11  THR11      -0.1218
      2  CA        56.9400    7.7330  -33.3450 C.3    11  THR11       0.1862
      3  C         57.3050    6.3580  -33.8530 C.2    11  THR11       0.2287
      4  O         57.9480    5.6130  -33.1230 O.2    11  THR11      -0.2866
      5  CB        55.4620    7.7340  -32.8990 C.3    11  THR11       0.1770
      6  OG1       55.2010    8.9790  -32.2510 O.3    11  THR11      -0.2211
      7  CG2       55.2140    6.6700  -31.7800 C.3    11  THR11       0.0375
      8  N         58.7020   13.5270  -32.9280 N.3    80  GLN80      -0.1231
      9  CA        57.6880   13.0610  -32.0090 C.3    80  GLN80       0.1698
     10  C         58.0550   13.7900  -30.7160 C.2    80  GLN80       0.2592
     11  O         59.2420   13.8780  -30.3740 O.2    80  GLN80      -0.2718
     12  CB        57.8490   11.5470  -31.8200 C.3    80  GLN80       0.0381
     13  CG        59.3420   11.1250  -31.5910 C.3    80  GLN80       0.0905
     14  CD        59.5110    9.7630  -30.9520 C.2    80  GLN80       0.2608
     15  OE1       58.6620    9.3160  -30.1940 O.2    80  GLN80      -0.2717
     16  NE2       60.6190    9.0950  -31.2560 N.am   80  GLN80      -0.0878
     17  N         57.0590   14.2920  -29.9980 N.am   81  ARG81      -0.1966
     18  CA        57.2980   15.0500  -28.7800 C.3    81  ARG81       0.1729
     19  C         57.4100   14.1860  -27.5310 C.2    81  ARG81       0.2616
     20  O         57.0680   13.0030  -27.5470 O.2    81  ARG81      -0.2715
     21  CB        56.1850   16.0830  -28.5940 C.3    81  ARG81       0.0348
     22  CG        56.1390   17.1450  -29.7310 C.3    81  ARG81       0.0492
     23  CD        54.9950   18.1180  -29.6420 C.3    81  ARG81       0.2205
     24  NE        53.7140   17.4230  -29.5720 N.pl3  81  ARG81      -0.0865
     25  CZ        52.5320   18.0080  -29.3570 C.cat  81  ARG81       0.5346
     26  NH1       52.4390   19.3330  -29.2250 N.pl3  81  ARG81       0.1354
     27  NH2       51.4200   17.2710  -29.3010 N.pl3  81  ARG81       0.1354
     28  N         57.8840   14.8400  -26.4610 N.am   82  GLU82      -0.1977
     29  CA        58.0220   14.3190  -25.0830 C.3    82  GLU82       0.1602
     30  C         58.9170   13.1100  -24.8880 C.2    82  GLU82       0.2287
     31  O         59.3390   12.8180  -23.7740 O.2    82  GLU82      -0.2864
     32  CB        56.6650   14.0280  -24.4310 C.3    82  GLU82       0.0415
     33  CG        55.8280   15.2570  -24.1670 C.3    82  GLU82       0.1163
     34  CD        54.6040   15.2810  -25.0240 C.2    82  GLU82       0.3649
     35  OE1       54.1150   14.1750  -25.3360 O.co2  82  GLU82      -0.2457
     36  OE2       54.1430   16.3880  -25.3790 O.co2  82  GLU82      -0.2457
     37  N         56.7640    8.8570  -25.4080 N.3   101  TRP101     -0.1241
     38  CA        55.6800    9.6120  -24.8020 C.3   101  TRP101      0.1605
     39  C         54.5180    8.7350  -24.3390 C.2   101  TRP101      0.2264
     40  O         53.8540    9.0610  -23.3540 O.2   101  TRP101     -0.2867
     41  CB        55.1380   10.6500  -25.7730 C.3   101  TRP101      0.0550
     42  CG        54.7180   10.1170  -27.1200 C.ar  101  TRP101      0.0003
     43  CD1       55.4930    9.9750  -28.2020 C.ar  101  TRP101      0.0946
     44  CD2       53.4060    9.6910  -27.5150 C.ar  101  TRP101      0.0152
     45  NE1       54.7640    9.5020  -29.2680 N.ar  101  TRP101     -0.2442
     46  CE2       53.4720    9.3170  -28.8650 C.ar  101  TRP101      0.0810
     47  CE3       52.1710    9.6140  -26.8650 C.ar  101  TRP101      0.0012
     48  CZ2       52.3570    8.8580  -29.5870 C.ar  101  TRP101      0.0191
     49  CZ3       51.0460    9.1520  -27.5860 C.ar  101  TRP101      0.0001
     50  CH2       51.1640    8.7860  -28.9360 C.ar  101  TRP101      0.0015
     51  N         52.9750   11.2420  -20.0560 N.3   133  TYR133     -0.1227
     52  CA        53.4030   11.7290  -21.3850 C.3   133  TYR133      0.1736
     53  C         54.6840   12.5370  -21.3980 C.2   133  TYR133      0.2595
     54  O         55.5430   12.3430  -22.2630 O.2   133  TYR133     -0.2718
     55  CB        52.3040   12.5940  -22.0360 C.3   133  TYR133      0.0548
     56  CG        50.9690   11.8930  -22.0280 C.ar  133  TYR133     -0.0200
     57  CD1       49.9400   12.3240  -21.2170 C.ar  133  TYR133     -0.0009
     58  CD2       50.7660   10.7630  -22.8010 C.ar  133  TYR133     -0.0009
     59  CE1       48.7410   11.6660  -21.1930 C.ar  133  TYR133      0.0417
     60  CE2       49.5730   10.1140  -22.7910 C.ar  133  TYR133      0.0417
     61  CZ        48.5730   10.5610  -21.9780 C.ar  133  TYR133      0.1957
     62  OH        47.3870    9.8850  -21.9680 O.3   133  TYR133     -0.2866
     63  N         54.8240   13.3910  -20.3960 N.am  134  PHE134     -0.1976
     64  CA        55.8330   14.4780  -20.4370 C.3   134  PHE134      0.1639
     65  C         57.2020   14.0970  -19.9740 C.2   134  PHE134      0.2290
     66  O         57.3400   13.2150  -19.1550 O.2   134  PHE134     -0.2864
     67  CB        55.2670   15.7370  -19.7900 C.3   134  PHE134      0.0560
     68  CG        53.9080   16.0690  -20.3130 C.ar  134  PHE134     -0.0200
     69  CD1       53.7390   16.4020  -21.6560 C.ar  134  PHE134     -0.0042
     70  CD2       52.7960   15.9940  -19.4960 C.ar  134  PHE134     -0.0042
     71  CE1       52.4680   16.7140  -22.1570 C.ar  134  PHE134     -0.0003
     72  CE2       51.5280   16.2780  -19.9720 C.ar  134  PHE134     -0.0003
     73  CZ        51.3460   16.6300  -21.3010 C.ar  134  PHE134     -0.0000
     74  N         57.2940   21.0070  -23.4530 N.3   189  ARG189     -0.1245
     75  CA        56.6460   19.7110  -23.3820 C.3   189  ARG189      0.1563
     76  C         57.2800   18.8330  -22.3240 C.2   189  ARG189      0.2260
     77  O         56.8390   17.7230  -22.0980 O.2   189  ARG189     -0.2867
     78  CB        56.7980   18.9940  -24.7290 C.3   189  ARG189      0.0307
     79  CG        56.2070   19.7450  -25.9100 C.3   189  ARG189      0.0489
     80  CD        54.8540   20.3360  -25.6540 C.3   189  ARG189      0.2205
     81  NE        53.7940   19.3060  -25.6470 N.pl3 189  ARG189     -0.0865
     82  CZ        52.4800   19.4950  -25.8400 C.cat 189  ARG189      0.5346
     83  NH1       51.9420   20.6960  -26.0560 N.pl3 189  ARG189      0.1354
     84  NH2       51.6670   18.4460  -25.8070 N.pl3 189  ARG189      0.1354
     85  N         56.4830   17.9950  -33.4510 N.3   245  ASP245     -0.1225
     86  CA        55.6230   17.5410  -34.5400 C.3   245  ASP245      0.1805
     87  C         54.2960   18.2920  -34.7020 C.2   245  ASP245      0.2597
     88  O         54.0350   18.8070  -35.7730 O.2   245  ASP245     -0.2718
     89  CB        55.4630   15.9980  -34.5760 C.3   245  ASP245      0.1424
     90  CG        54.6880   15.4270  -33.3650 C.2   245  ASP245      0.3668
     91  OD1       54.2640   16.1350  -32.4280 O.co2 245  ASP245     -0.2456
     92  OD2       54.4560   14.2280  -33.3080 O.co2 245  ASP245     -0.2456
     93  N         53.4770   18.3750  -33.6630 N.am  246  GLN246     -0.1979
     94  CA        52.1580   19.0290  -33.8090 C.3   246  GLN246      0.1601
     95  C         52.2580   20.5200  -34.1750 C.2   246  GLN246      0.2287
     96  O         51.4620   21.0480  -34.9510 O.2   246  GLN246     -0.2864
     97  CB        51.2900   18.8060  -32.5390 C.3   246  GLN246      0.0394
     98  CG        50.5860   17.4550  -32.5380 C.3   246  GLN246      0.0908
     99  CD        49.7080   17.3250  -33.7610 C.2   246  GLN246      0.2608
    100  OE1       48.7430   18.0590  -33.9480 O.2   246  GLN246     -0.2717
    101  NE2       50.0710   16.4730  -34.6050 N.am  246  GLN246     -0.0878
    102  N         44.3760   15.5640  -32.6270 N.3   270  PHE270     -0.1241
    103  CA        45.1300   16.6240  -31.9630 C.3   270  PHE270      0.1605
    104  C         44.7390   17.9430  -32.5890 C.2   270  PHE270      0.2264
    105  O         44.7770   18.0860  -33.8230 O.2   270  PHE270     -0.2867
    106  CB        46.6240   16.4260  -32.1320 C.3   270  PHE270      0.0534
    107  CG        47.1630   15.3240  -31.2900 C.ar  270  PHE270     -0.0203
    108  CD1       47.7270   15.5980  -30.0710 C.ar  270  PHE270     -0.0042
    109  CD2       47.0640   14.0040  -31.7020 C.ar  270  PHE270     -0.0042
    110  CE1       48.1980   14.5750  -29.2610 C.ar  270  PHE270     -0.0003
    111  CE2       47.5370   12.9640  -30.8790 C.ar  270  PHE270     -0.0003
    112  CZ        48.0940   13.2690  -29.6500 C.ar  270  PHE270     -0.0000
    113  N         45.8680   22.0160  -22.7470 N.3   287  LEU287     -0.1245
    114  CA        47.2750   22.3260  -22.5280 C.3   287  LEU287      0.1561
    115  C         47.6350   23.7110  -23.0740 C.2   287  LEU287      0.2260
    116  O         47.0840   24.1420  -24.0910 O.2   287  LEU287     -0.2867
    117  CB        48.1770   21.2860  -23.1640 C.3   287  LEU287      0.0270
    118  CG        47.9940   19.8160  -22.8210 C.3   287  LEU287      0.0019
    119  CD1       49.0320   19.0520  -23.6220 C.3   287  LEU287      0.0001
    120  CD2       48.1420   19.5450  -21.3040 C.3   287  LEU287      0.0001
    121  N         46.2830   23.6280  -26.7330 N.3   304  GLU304     -0.1245
    122  CA        46.2490   22.3020  -27.3280 C.3   304  GLU304      0.1567
    123  C         45.1850   21.3720  -26.6690 C.2   304  GLU304      0.2260
    124  O         45.0460   21.3080  -25.4400 O.2   304  GLU304     -0.2867
    125  CB        47.6620   21.6850  -27.3360 C.3   304  GLU304      0.0388
    126  CG        47.7150   20.2580  -27.8580 C.3   304  GLU304      0.1160
    127  CD        49.1290   19.7440  -27.9670 C.2   304  GLU304      0.3649
    128  OE1       50.0640   20.5460  -28.1760 O.co2 304  GLU304     -0.2457
    129  OE2       49.3140   18.5180  -27.8590 O.co2 304  GLU304     -0.2457
    130  N         43.3360   17.3380  -27.0450 N.3   306  SER306     -0.1217
    131  CA        43.4650   15.9890  -27.5460 C.3   306  SER306      0.1889
    132  C         42.1390   15.1980  -27.4380 C.2   306  SER306      0.2288
    133  O         41.4430   15.2450  -26.4080 O.2   306  SER306     -0.2866
    134  CB        44.5700   15.3220  -26.7330 C.3   306  SER306      0.2089
    135  OG        44.9040   14.0990  -27.2950 O.3   306  SER306     -0.2183
@<TRIPOS>BOND
     1    88    87    2
     2    96    95    2
     3    87    86    1
     4    87    93   am
     5   101    99   am
     6    89    86    1
     7    89    90    1
     8    86    85    1
     9     1     2    1
    10    95    94    1
    11   100    99    2
    12     3     2    1
    13     3     4    2
    14   105   104    2
    15    94    93    1
    16    94    97    1
    17    99    98    1
    18    90    92   ar
    19    90    91   ar
    20     2     5    1
    21     8     9    1
    22     5     6    1
    23     5     7    1
    24   102   103    1
    25   104   103    1
    26    97    98    1
    27   106   103    1
    28   106   107    1
    29     9    12    1
    30     9    10    1
    31    12    13    1
    32   109   107   ar
    33   109   111   ar
    34    13    14    1
    35   107   108   ar
    36    16    14   am
    37    14    15    2
    38   111   112   ar
    39    10    11    2
    40    10    17   am
    41   108   110   ar
    42    17    18    1
    43    22    23    1
    44    22    21    1
    45   112   110   ar
    46    23    24    1
    47    48    50   ar
    48    48    46   ar
    49    24    25    2
    50    25    27    1
    51    25    26    1
    52    45    46   ar
    53    45    43   ar
    54    50    49   ar
    55    46    44   ar
    56    18    21    1
    57    18    19    1
    58    43    42   ar
    59   128   127   ar
    60   127   129   ar
    61   127   126    1
    62   126   125    1
    63    49    47   ar
    64    20    19    2
    65   131   132    1
    66   131   130    1
    67   131   134    1
    68    19    28   am
    69    44    42   ar
    70    44    47   ar
    71   132   133    2
    72   125   122    1
    73   122   121    1
    74   122   123    1
    75   135   134    1
    76    42    41    1
    77   123   124    2
    78    28    29    1
    79    83    82    1
    80    79    80    1
    81    79    78    1
    82    82    84    1
    83    82    81    2
    84    41    38    1
    85    80    81    1
    86    37    38    1
    87    36    34   ar
    88    35    34   ar
    89    29    30    1
    90    29    32    1
    91    34    33    1
    92    30    31    2
    93    38    39    1
    94    78    75    1
    95    32    33    1
    96    39    40    2
    97   116   115    2
    98   119   118    1
    99    74    75    1
   100    75    76    1
   101   117   118    1
   102   117   114    1
   103   115   114    1
   104   118   120    1
   105    58    60   ar
   106    58    56   ar
   107    60    61   ar
   108   113   114    1
   109    76    77    2
   110    54    53    2
   111    71    69   ar
   112    71    73   ar
   113    55    56    1
   114    55    52    1
   115    56    57   ar
   116    61    62    1
   117    61    59   ar
   118    69    68   ar
   119    53    52    1
   120    53    63   am
   121    52    51    1
   122    73    72   ar
   123    57    59   ar
   124    64    63    1
   125    64    65    1
   126    64    67    1
   127    68    67    1
   128    68    70   ar
   129    65    66    2
   130    72    70   ar
