@<TRIPOS>MOLECULE
tmp/2d5mA00.pdb
 188 184 0 0 0
SMALL
GASTEIGER

@<TRIPOS>ATOM
      1  N         14.7190   28.7730    6.5850 N.3    16  LEU16      -0.1245
      2  CA        14.6000   28.7580    8.0330 C.3    16  LEU16       0.1561
      3  C         13.1460   29.0570    8.3500 C.2    16  LEU16       0.2260
      4  O         12.7460   30.2000    8.5970 O.2    16  LEU16      -0.2867
      5  CB        15.5620   29.7730    8.7250 C.3    16  LEU16       0.0270
      6  CG        15.5460   29.7530   10.2640 C.3    16  LEU16       0.0019
      7  CD1       16.0060   28.4140   10.7770 C.3    16  LEU16       0.0001
      8  CD2       16.3830   30.8970   10.8220 C.3    16  LEU16       0.0001
      9  N          3.2350   26.8900   19.8970 N.3    29  ASN29      -0.1240
     10  CA         4.6320   26.5060   19.7520 C.3    29  ASN29       0.1653
     11  C          5.1600   26.9010   18.3700 C.2    29  ASN29       0.2266
     12  O          4.3880   27.1020   17.4410 O.2    29  ASN29      -0.2867
     13  CB         4.7760   25.0030   19.9130 C.3    29  ASN29       0.1155
     14  CG         6.2040   24.5450   20.1920 C.2    29  ASN29       0.2627
     15  OD1        7.0190   25.3090   20.7350 O.2    29  ASN29      -0.2716
     16  ND2        6.4890   23.2900   19.8600 N.am   29  ASN29      -0.0877
     17  N          8.8800   25.7390   16.0640 N.3    31  MET31      -0.1230
     18  CA        10.1740   25.0730   15.9240 C.3    31  MET31       0.1702
     19  C         10.7950   25.5020   14.6240 C.2    31  MET31       0.2592
     20  O         10.1060   25.9490   13.7140 O.2    31  MET31      -0.2718
     21  CB        10.0820   23.5540   16.0440 C.3    31  MET31       0.0401
     22  CG         9.1590   22.9070   15.0270 C.3    31  MET31       0.0596
     23  SD         9.8820   22.6620   13.4000 S.3    31  MET31      -0.1393
     24  CE        10.9540   21.2490   13.6620 C.3    31  MET31       0.0692
     25  N         12.1180   25.3900   14.5030 N.am   32  ALA32      -0.1966
     26  CA        12.8110   25.6960   13.2610 C.3    32  ALA32       0.1728
     27  C         12.9210   24.4650   12.3610 C.2    32  ALA32       0.2616
     28  O         13.2740   23.3580   12.8350 O.2    32  ALA32      -0.2715
     29  CB        14.2070   26.1950   13.5740 C.3    32  ALA32       0.0334
     30  N         12.6840   24.6590   11.0870 N.am   33  ALA33      -0.1963
     31  CA        12.7980   23.5950   10.0780 C.3    33  ALA33       0.1728
     32  C         13.5130   24.1540    8.8430 C.2    33  ALA33       0.2616
     33  O         13.0470   25.1220    8.2550 O.2    33  ALA33      -0.2715
     34  CB        11.4710   23.0310    9.6780 C.3    33  ALA33       0.0334
     35  N         14.5900   23.4890    8.4460 N.am   34  ALA34      -0.1963
     36  CA        15.2660   23.7630    7.1950 C.3    34  ALA34       0.1728
     37  C         15.1170   22.6480    6.1740 C.2    34  ALA34       0.2616
     38  O         15.4000   22.8670    4.9830 O.2    34  ALA34      -0.2715
     39  CB        16.7510   24.0260    7.4250 C.3    34  ALA34       0.0334
     40  N         14.7190   21.4320    6.5930 N.am   35  TRP35      -0.1974
     41  CA        14.5370   20.3000    5.6780 C.3    35  TRP35       0.1640
     42  C         13.1130   20.4140    5.1460 C.2    35  TRP35       0.2290
     43  O         12.1780   19.7370    5.5820 O.2    35  TRP35      -0.2864
     44  CB        14.7660   18.9790    6.3660 C.3    35  TRP35       0.0576
     45  CG        16.1800   18.5540    6.6690 C.ar   35  TRP35       0.0006
     46  CD1       16.4710   17.3000    7.0970 C.ar   35  TRP35       0.0946
     47  CD2       17.4450   19.2340    6.5890 C.ar   35  TRP35       0.0152
     48  NE1       17.8100   17.1510    7.2910 N.ar   35  TRP35      -0.2442
     49  CE2       18.4440   18.3170    6.9880 C.ar   35  TRP35       0.0810
     50  CE3       17.8580   20.5120    6.2010 C.ar   35  TRP35       0.0012
     51  CZ2       19.7920   18.6370    7.0330 C.ar   35  TRP35       0.0191
     52  CZ3       19.2000   20.8460    6.2480 C.ar   35  TRP35       0.0001
     53  CH2       20.1730   19.9010    6.6630 C.ar   35  TRP35       0.0015
     54  N         10.0850   18.0560    6.7400 N.3    49  SER49      -0.1202
     55  CA        10.5400   16.8190    7.3840 C.3    49  SER49       0.2020
     56  C         10.7420   17.0710    8.8460 C.2    49  SER49       0.2619
     57  O         11.7430   17.6820    9.1880 O.2    49  SER49      -0.2717
     58  CB        11.8430   16.3740    6.7250 C.3    49  SER49       0.2103
     59  OG        11.6490   16.0360    5.3870 O.3    49  SER49      -0.2182
     60  N          9.8380   16.6140    9.6980 N.am   50  LEU50      -0.1965
     61  CA         9.8820   16.8140   11.1320 C.3    50  LEU50       0.1728
     62  C         10.0500   15.4840   11.8340 C.2    50  LEU50       0.2616
     63  O          9.3070   14.5430   11.5910 O.2    50  LEU50      -0.2715
     64  CB         8.5850   17.4870   11.6270 C.3    50  LEU50       0.0311
     65  CG         8.1960   18.8180   10.9690 C.3    50  LEU50       0.0022
     66  CD1        7.0040   19.4830   11.6060 C.3    50  LEU50       0.0001
     67  CD2        9.4180   19.7720   10.9650 C.3    50  LEU50       0.0001
     68  N         11.0180   15.4260   12.7230 N.am   51  ARG51      -0.1977
     69  CA        11.3040   14.2300   13.4660 C.3    51  ARG51       0.1597
     70  C         10.2370   13.9350   14.4950 C.2    51  ARG51       0.2287
     71  O          9.6530   14.8030   15.1280 O.2    51  ARG51      -0.2864
     72  CB        12.6670   14.3540   14.1810 C.3    51  ARG51       0.0334
     73  CG        13.8330   14.3470   13.2330 C.3    51  ARG51       0.0492
     74  CD        15.2050   14.7220   13.8540 C.3    51  ARG51       0.2205
     75  NE        15.0120   16.1000   14.2620 N.pl3  51  ARG51      -0.0865
     76  CZ        14.7670   16.5540   15.4970 C.cat  51  ARG51       0.5346
     77  NH1       14.8380   15.7930   16.5700 N.pl3  51  ARG51       0.1354
     78  NH2       14.4810   17.8370   15.6200 N.pl3  51  ARG51       0.1354
     79  N         10.5680   12.9090   17.4600 N.3    53  ALA53      -0.1231
     80  CA        10.9070   13.3620   18.7890 C.3    53  ALA53       0.1694
     81  C         10.4390   14.7770   19.0510 C.2    53  ALA53       0.2593
     82  O         10.3810   15.2120   20.2060 O.2    53  ALA53      -0.2718
     83  CB        12.4150   13.2790   19.0270 C.3    53  ALA53       0.0304
     84  N         10.1580   15.5730   18.0090 N.am   54  THR54      -0.1939
     85  CA         9.7740   16.9520   18.2510 C.3    54  THR54       0.2028
     86  C          8.3490   17.0220   18.8290 C.2    54  THR54       0.2642
     87  O          7.4770   16.2200   18.4830 O.2    54  THR54      -0.2714
     88  CB         9.8620   17.8150   17.0050 C.3    54  THR54       0.1808
     89  OG1        8.9340   17.3930   16.0440 O.3    54  THR54      -0.2208
     90  CG2       11.2290   17.8100   16.3960 C.3    54  THR54       0.0379
     91  N          8.1460   17.9880   19.7060 N.am   55  TYR55      -0.1959
     92  CA         6.7840   18.1830   20.2560 C.3    55  TYR55       0.1771
     93  C          5.8300   18.5910   19.1250 C.2    55  TYR55       0.2620
     94  O          4.6530   18.2190   19.0820 O.2    55  TYR55      -0.2715
     95  CB         6.8530   19.1940   21.3840 C.3    55  TYR55       0.0574
     96  CG         5.6270   19.2790   22.2540 C.ar   55  TYR55      -0.0198
     97  CD1        5.2230   18.1520   22.9710 C.ar   55  TYR55      -0.0009
     98  CD2        4.8690   20.4170   22.3930 C.ar   55  TYR55      -0.0009
     99  CE1        4.1250   18.1420   23.7990 C.ar   55  TYR55       0.0417
    100  CE2        3.7550   20.4630   23.2260 C.ar   55  TYR55       0.0417
    101  CZ         3.3630   19.3260   23.9210 C.ar   55  TYR55       0.1957
    102  OH         2.2780   19.2820   24.7630 O.3    55  TYR55      -0.2866
    103  N          6.3370   19.3850   18.1850 N.am   56  THR56      -0.1951
    104  CA         5.5630   19.8300   17.0390 C.3    56  THR56       0.1897
    105  C          4.9950   18.6920   16.2270 C.2    56  THR56       0.2313
    106  O          3.8620   18.7670   15.7580 O.2    56  THR56      -0.2863
    107  CB         6.4690   20.7190   16.1590 C.3    56  THR56       0.1794
    108  OG1        6.8270   21.8790   16.9210 O.3    56  THR56      -0.2208
    109  CG2        5.7950   21.1780   14.9090 C.3    56  THR56       0.0378
    110  N         16.6080   30.7690   15.9870 N.3    80  ASP80      -0.1239
    111  CA        17.5840   29.7860   16.4560 C.3    80  ASP80       0.1674
    112  C         17.1540   29.1720   17.7850 C.2    80  ASP80       0.2266
    113  O         17.2300   27.9420   17.9610 O.2    80  ASP80      -0.2867
    114  CB        18.9520   30.4420   16.5260 C.3    80  ASP80       0.1410
    115  CG        20.0870   29.4360   16.6250 C.2    80  ASP80       0.3668
    116  OD1       20.1460   28.5430   15.7220 O.co2  80  ASP80      -0.2456
    117  OD2       20.9200   29.5540   17.5520 O.co2  80  ASP80      -0.2456
    118  N         14.1910   28.7170   18.8970 N.3    82  ALA82      -0.1231
    119  CA        13.0770   27.7900   18.6190 C.3    82  ALA82       0.1694
    120  C         13.5680   26.4800   18.0500 C.2    82  ALA82       0.2593
    121  O         12.8600   25.4620   18.1160 O.2    82  ALA82      -0.2718
    122  CB        12.0690   28.4460   17.6740 C.3    82  ALA82       0.0304
    123  N         14.7560   26.5030   17.4310 N.am   83  GLY83      -0.1942
    124  CA        15.4360   25.3050   16.9100 C.3    83  GLY83       0.2014
    125  C         16.3730   24.6110   17.8570 C.2    83  GLY83       0.2639
    126  O         16.9610   23.5870   17.4590 O.2    83  GLY83      -0.2714
    127  N         16.5720   25.1370   19.0640 N.am   84  ILE84      -0.1963
    128  CA        17.4010   24.5150   20.0830 C.3    84  ILE84       0.1727
    129  C         16.5680   23.8900   21.1750 C.2    84  ILE84       0.2616
    130  O         16.8450   22.7910   21.6270 O.2    84  ILE84      -0.2715
    131  CB        18.3780   25.5570   20.6580 C.3    84  ILE84       0.0290
    132  CG1       19.3500   26.0950   19.6250 C.3    84  ILE84       0.0022
    133  CG2       19.1020   24.9690   21.9010 C.3    84  ILE84       0.0023
    134  CD1       20.1350   27.3260   20.0520 C.3    84  ILE84       0.0001
    135  N         15.5270   24.5830   21.6480 N.am   85  TYR85      -0.1960
    136  CA        14.7500   24.2070   22.8060 C.3    85  TYR85       0.1771
    137  C         13.4090   23.6540   22.3850 C.2    85  TYR85       0.2620
    138  O         12.8870   23.9980   21.3460 O.2    85  TYR85      -0.2715
    139  CB        14.6000   25.3940   23.7790 C.3    85  TYR85       0.0574
    140  CG        15.9830   25.9180   24.1620 C.ar   85  TYR85      -0.0198
    141  CD1       16.8200   25.1640   24.9810 C.ar   85  TYR85      -0.0009
    142  CD2       16.4300   27.1190   23.6970 C.ar   85  TYR85      -0.0009
    143  CE1       18.0750   25.6070   25.3450 C.ar   85  TYR85       0.0417
    144  CE2       17.7020   27.5910   24.0220 C.ar   85  TYR85       0.0417
    145  CZ        18.5220   26.8230   24.8550 C.ar   85  TYR85       0.1957
    146  OH        19.7980   27.2790   25.1810 O.3    85  TYR85      -0.2866
    147  N         12.8530   22.7530   23.2110 N.am   86  SER86      -0.1936
    148  CA        11.5820   22.1640   22.9360 C.3    86  SER86       0.2055
    149  C         10.4200   22.8480   23.6480 C.2    86  SER86       0.2643
    150  O         10.5590   23.2940   24.8050 O.2    86  SER86      -0.2714
    151  CB        11.5580   20.6740   23.3550 C.3    86  SER86       0.2130
    152  OG        10.2790   20.0970   23.0650 O.3    86  SER86      -0.2179
    153  N          9.2600   22.8460   23.0150 N.am   87  GLY87      -0.1954
    154  CA         8.0470   23.3590   23.6020 C.3    87  GLY87       0.1869
    155  C          7.2550   22.3760   24.4330 C.2    87  GLY87       0.2309
    156  O          6.1990   22.7400   24.9350 O.2    87  GLY87      -0.2863
    157  N          7.5070   28.9250   24.2530 N.3    92  LYS92      -0.1245
    158  CA         8.5590   29.6840   23.6120 C.3    92  LYS92       0.1561
    159  C          8.1310   31.0770   23.2260 C.2    92  LYS92       0.2260
    160  O          8.9650   31.9820   23.1260 O.2    92  LYS92      -0.2867
    161  CB         9.0690   28.9550   22.3660 C.3    92  LYS92       0.0271
    162  CG         9.6710   27.6200   22.5800 C.3    92  LYS92       0.0035
    163  CD        10.1710   27.0100   21.2680 C.3    92  LYS92       0.0206
    164  CE        10.1420   25.5180   21.3530 C.3    92  LYS92       0.1093
    165  NZ        10.5000   24.8360   20.1020 N.3    92  LYS92      -0.1314
    166  N         19.5490   29.4270    5.8040 N.3   161  PHE161     -0.1241
    167  CA        20.3810   28.5440    6.5720 C.3   161  PHE161      0.1605
    168  C         21.4270   27.8600    5.6920 C.2   161  PHE161      0.2264
    169  O         21.1020   27.3570    4.6160 O.2   161  PHE161     -0.2867
    170  CB        19.5490   27.5120    7.3190 C.3   161  PHE161      0.0534
    171  CG        20.2880   26.4400    8.0800 C.ar  161  PHE161     -0.0203
    172  CD1       21.1790   26.8100    9.1120 C.ar  161  PHE161     -0.0042
    173  CD2       20.1420   25.1210    7.8170 C.ar  161  PHE161     -0.0042
    174  CE1       21.8240   25.8630    9.8500 C.ar  161  PHE161     -0.0003
    175  CE2       20.7370   24.1550    8.5760 C.ar  161  PHE161     -0.0003
    176  CZ        21.6140   24.5140    9.5970 C.ar  161  PHE161     -0.0000
    177  N         23.7250   31.3970    9.4680 N.3   168  TYR168     -0.1241
    178  CA        22.5900   32.1110    8.9010 C.3   168  TYR168      0.1605
    179  C         23.0660   33.3020    8.0790 C.2   168  TYR168      0.2264
    180  O         23.9580   34.0240    8.5350 O.2   168  TYR168     -0.2867
    181  CB        21.7000   32.6040   10.0180 C.3   168  TYR168      0.0534
    182  CG        21.0620   31.5430   10.8860 C.ar  168  TYR168     -0.0201
    183  CD1       21.2340   31.5540   12.2430 C.ar  168  TYR168     -0.0009
    184  CD2       20.2780   30.5440   10.3430 C.ar  168  TYR168     -0.0009
    185  CE1       20.6560   30.5920   13.0660 C.ar  168  TYR168      0.0417
    186  CE2       19.6690   29.5920   11.1550 C.ar  168  TYR168      0.0417
    187  CZ        19.8560   29.6290   12.5110 C.ar  168  TYR168      0.1957
    188  OH        19.2330   28.6790   13.2490 O.3   168  TYR168     -0.2866
@<TRIPOS>BOND
     1   169   168    2
     2    38    37    2
     3    42    43    2
     4    42    41    1
     5    59    58    1
     6    41    44    1
     7    41    40    1
     8   168   167    1
     9   166   167    1
    10    37    40   am
    11    37    36    1
    12    50    52   ar
    13    50    47   ar
    14    52    53   ar
    15    44    45    1
    16   167   170    1
    17     1     2    1
    18    47    45   ar
    19    47    49   ar
    20    53    51   ar
    21    45    46   ar
    22    58    55    1
    23    54    55    1
    24    49    51   ar
    25    49    48   ar
    26    46    48   ar
    27    36    39    1
    28    36    35    1
    29   170   171    1
    30    55    56    1
    31   173   171   ar
    32   173   175   ar
    33     2     3    1
    34     2     5    1
    35   179   180    2
    36   179   178    1
    37   171   172   ar
    38    33    32    2
    39     3     4    2
    40    35    32   am
    41   175   176   ar
    42     5     6    1
    43    32    31    1
    44    56    57    2
    45    56    60   am
    46   178   177    1
    47   178   181    1
    48   172   174   ar
    49   176   174   ar
    50    34    31    1
    51    60    61    1
    52   181   182    1
    53    31    30    1
    54     6     7    1
    55     6     8    1
    56   184   182   ar
    57   184   186   ar
    58   182   183   ar
    59    67    65    1
    60    65    66    1
    61    65    64    1
    62    30    27   am
    63    61    64    1
    64    61    62    1
    65   186   187   ar
    66    63    62    2
    67    62    68   am
    68   183   185   ar
    69    27    28    2
    70    27    26    1
    71   187   185   ar
    72   187   188    1
    73    68    69    1
    74    73    74    1
    75    73    72    1
    76    26    29    1
    77    26    25    1
    78    23    24    1
    79    23    22    1
    80    69    72    1
    81    69    70    1
    82    20    19    2
    83    74    75    1
    84    75    76    2
    85    70    71    2
    86    25    19   am
    87    19    18    1
    88   109   107    1
    89    22    21    1
    90    76    78    1
    91    76    77    1
    92   116   115   ar
    93   106   105    2
    94    18    21    1
    95    18    17    1
    96   110   111    1
    97    89    88    1
    98   107   108    1
    99   107   104    1
   100   105   104    1
   101    90    88    1
   102   111   114    1
   103   111   112    1
   104   114   115    1
   105   115   117   ar
   106   124   123    1
   107   124   125    1
   108    88    85    1
   109   104   103    1
   110   123   120   am
   111    12    11    2
   112   126   125    2
   113    79    80    1
   114   122   119    1
   115   112   113    2
   116   125   127   am
   117    84    85    1
   118    84    81   am
   119   120   121    2
   120   120   119    1
   121   103    93   am
   122    85    86    1
   123    11    10    1
   124    87    86    2
   125   119   118    1
   126    80    83    1
   127    80    81    1
   128    86    91   am
   129    81    82    2
   130   127   128    1
   131    94    93    2
   132    93    92    1
   133   132   134    1
   134   132   131    1
   135    91    92    1
   136    10     9    1
   137    10    13    1
   138    16    14   am
   139    13    14    1
   140   128   131    1
   141   128   129    1
   142   165   164    1
   143    14    15    2
   144    92    95    1
   145   131   133    1
   146   129   130    2
   147   129   135   am
   148   163   164    1
   149   163   162    1
   150   138   137    2
   151    95    96    1
   152   135   136    1
   153    96    98   ar
   154    96    97   ar
   155   161   162    1
   156   161   158    1
   157   137   136    1
   158   137   147   am
   159    98   100   ar
   160   136   139    1
   161   148   147    1
   162   148   151    1
   163   148   149    1
   164    97    99   ar
   165   153   154    1
   166   153   149   am
   167   152   151    1
   168   160   159    2
   169   100   101   ar
   170   159   158    1
   171   154   155    1
   172   158   157    1
   173   149   150    2
   174   142   144   ar
   175   142   140   ar
   176   139   140    1
   177    99   101   ar
   178   101   102    1
   179   144   145   ar
   180   140   141   ar
   181   155   156    2
   182   145   146    1
   183   145   143   ar
   184   141   143   ar
