@<TRIPOS>MOLECULE
tmp/2d5xA01.pdb
 94 88 0 0 0
SMALL
GASTEIGER

@<TRIPOS>ATOM
      1  N         25.1690   40.5570   22.8310 N.3    61  LYS61      -0.1245
      2  CA        25.9310   41.7370   23.2220 C.3    61  LYS61       0.1561
      3  C         25.8300   42.0200   24.7240 C.2    61  LYS61       0.2260
      4  O         26.8380   42.2550   25.3710 O.2    61  LYS61      -0.2867
      5  CB        25.4870   42.9600   22.4290 C.3    61  LYS61       0.0271
      6  CG        25.6760   42.8280   20.9350 C.3    61  LYS61       0.0035
      7  CD        25.2160   44.0560   20.2270 C.3    61  LYS61       0.0206
      8  CE        25.0020   43.7820   18.7310 C.3    61  LYS61       0.1093
      9  NZ        24.7520   45.0730   18.0370 N.3    61  LYS61      -0.1314
     10  N         27.7960   39.3220   26.5360 N.3    64  ASP64      -0.1225
     11  CA        29.2390   39.5350   26.3680 C.3    64  ASP64       0.1805
     12  C         29.7260   40.6750   27.2720 C.2    64  ASP64       0.2597
     13  O         30.7910   40.5790   27.8850 O.2    64  ASP64      -0.2718
     14  CB        29.5990   39.8090   24.8910 C.3    64  ASP64       0.1424
     15  CG        29.4980   38.5600   24.0320 C.2    64  ASP64       0.3668
     16  OD1       29.2740   37.4580   24.5930 O.co2  64  ASP64      -0.2456
     17  OD2       29.6130   38.5840   22.7840 O.co2  64  ASP64      -0.2456
     18  N         28.9380   41.7480   27.3730 N.am   65  ALA65      -0.1979
     19  CA        29.3100   42.8450   28.2620 C.3    65  ALA65       0.1597
     20  C         29.2840   42.4090   29.7300 C.2    65  ALA65       0.2287
     21  O         30.1620   42.7730   30.4960 O.2    65  ALA65      -0.2864
     22  CB        28.4030   44.0660   28.0230 C.3    65  ALA65       0.0319
     23  N         32.3760   40.2760   30.3460 N.3    68  LEU68      -0.1245
     24  CA        33.5010   41.1880   30.4940 C.3    68  LEU68       0.1561
     25  C         33.5200   41.8370   31.8970 C.2    68  LEU68       0.2260
     26  O         34.5710   41.8840   32.5600 O.2    68  LEU68      -0.2867
     27  CB        33.4610   42.2380   29.3730 C.3    68  LEU68       0.0270
     28  CG        34.6700   43.1620   29.2410 C.3    68  LEU68       0.0019
     29  CD1       35.8770   42.3610   28.7460 C.3    68  LEU68       0.0001
     30  CD2       34.3660   44.2660   28.2570 C.3    68  LEU68       0.0001
     31  N         36.1800   49.2930   32.7230 N.3    79  ALA79      -0.1231
     32  CA        35.7010   48.3080   31.7630 C.3    79  ALA79       0.1694
     33  C         34.4570   48.7680   31.0090 C.2    79  ALA79       0.2591
     34  O         34.3110   48.4860   29.8140 O.2    79  ALA79      -0.2718
     35  CB        35.4320   46.9790   32.4630 C.3    79  ALA79       0.0304
     36  N         33.5540   49.4490   31.7180 N.am   80  LEU80      -0.1980
     37  CA        32.2700   49.8380   31.1570 C.3    80  LEU80       0.1596
     38  C         32.1370   51.3120   30.8020 C.2    80  LEU80       0.2287
     39  O         31.0350   51.7510   30.4990 O.2    80  LEU80      -0.2864
     40  CB        31.1370   49.4390   32.1050 C.3    80  LEU80       0.0297
     41  CG        31.0380   47.9420   32.4460 C.3    80  LEU80       0.0022
     42  CD1       29.9730   47.6830   33.4740 C.3    80  LEU80       0.0001
     43  CD2       30.8010   47.0700   31.1890 C.3    80  LEU80       0.0001
     44  N         32.8770   53.2440   28.1620 N.3    82  ASN82      -0.1225
     45  CA        32.3000   53.5640   26.8570 C.3    82  ASN82       0.1785
     46  C         30.8250   53.2150   26.7740 C.2    82  ASN82       0.2597
     47  O         30.0170   53.9480   26.1870 O.2    82  ASN82      -0.2718
     48  CB        33.0670   52.8390   25.7540 C.3    82  ASN82       0.1169
     49  CG        34.5340   53.2510   25.6820 C.2    82  ASN82       0.2627
     50  OD1       34.8830   54.4170   25.8560 O.2    82  ASN82      -0.2716
     51  ND2       35.3980   52.2830   25.4290 N.am   82  ASN82      -0.0877
     52  N         30.4780   52.0730   27.3540 N.am   83  LEU83      -0.1980
     53  CA        29.0980   51.6090   27.3450 C.3    83  LEU83       0.1596
     54  C         28.2250   52.5370   28.1990 C.2    83  LEU83       0.2287
     55  O         27.0400   52.7150   27.9240 O.2    83  LEU83      -0.2864
     56  CB        29.0460   50.1800   27.8720 C.3    83  LEU83       0.0297
     57  CG        27.8570   49.3190   27.4910 C.3    83  LEU83       0.0022
     58  CD1       27.6750   49.2090   25.9550 C.3    83  LEU83       0.0001
     59  CD2       28.0630   47.9390   28.1370 C.3    83  LEU83       0.0001
     60  N         28.8960   55.8390   28.4940 N.3    85  ASP85      -0.1225
     61  CA        28.7090   56.9780   27.5830 C.3    85  ASP85       0.1805
     62  C         27.5270   56.7310   26.6430 C.2    85  ASP85       0.2597
     63  O         26.6640   57.5820   26.4630 O.2    85  ASP85      -0.2718
     64  CB        29.9630   57.2050   26.7290 C.3    85  ASP85       0.1424
     65  CG        31.1410   57.7920   27.5040 C.2    85  ASP85       0.3668
     66  OD1       30.9780   58.3620   28.6090 O.co2  85  ASP85      -0.2456
     67  OD2       32.3040   57.7520   27.0510 O.co2  85  ASP85      -0.2456
     68  N         27.4940   55.5580   26.0270 N.am   86  LEU86      -0.1979
     69  CA        26.4080   55.2040   25.1280 C.3    86  LEU86       0.1596
     70  C         25.0390   55.2510   25.8180 C.2    86  LEU86       0.2287
     71  O         24.1110   55.9080   25.3390 O.2    86  LEU86      -0.2864
     72  CB        26.6410   53.8160   24.5230 C.3    86  LEU86       0.0297
     73  CG        25.4660   53.2540   23.7140 C.3    86  LEU86       0.0022
     74  CD1       25.2210   54.0810   22.4580 C.3    86  LEU86       0.0001
     75  CD2       25.6730   51.7840   23.3510 C.3    86  LEU86       0.0001
     76  N         24.6600   59.3140   27.6420 N.3    89  HIS89      -0.1226
     77  CA        24.7710   60.4780   26.7580 C.3    89  HIS89       0.1752
     78  C         23.9130   60.3480   25.5270 C.2    89  HIS89       0.2595
     79  O         23.1960   61.2800   25.1670 O.2    89  HIS89      -0.2718
     80  CB        26.2290   60.7300   26.3350 C.3    89  HIS89       0.0759
     81  CG        27.1510   61.0170   27.4770 C.ar   89  HIS89       0.0818
     82  ND1       28.4750   60.6310   27.4820 N.ar   89  HIS89      -0.2268
     83  CD2       26.9370   61.6420   28.6590 C.ar   89  HIS89       0.1154
     84  CE1       29.0390   61.0140   28.6150 C.ar   89  HIS89       0.1986
     85  NE2       28.1260   61.6250   29.3480 N.ar   89  HIS89      -0.2212
     86  N         23.9870   59.1960   24.8760 N.am   90  LYS90      -0.1980
     87  CA        23.2990   58.9900   23.6140 C.3    90  LYS90       0.1596
     88  C         21.8690   58.4920   23.8020 C.2    90  LYS90       0.2287
     89  O         20.9290   59.0350   23.2100 O.2    90  LYS90      -0.2864
     90  CB        24.0770   58.0040   22.7450 C.3    90  LYS90       0.0298
     91  CG        23.6320   57.9590   21.2890 C.3    90  LYS90       0.0038
     92  CD        23.5800   56.5200   20.8020 C.3    90  LYS90       0.0206
     93  CE        24.0800   56.3540   19.3640 C.3    90  LYS90       0.1093
     94  NZ        23.1370   56.8520   18.3210 N.3    90  LYS90      -0.1314
@<TRIPOS>BOND
     1     9     8    1
     2    94    93    1
     3     8     7    1
     4    93    92    1
     5     7     6    1
     6    92    91    1
     7     6     5    1
     8    91    90    1
     9     5     2    1
    10    74    73    1
    11    90    87    1
    12    17    15   ar
    13     1     2    1
    14    89    88    2
    15     2     3    1
    16    75    73    1
    17    87    88    1
    18    87    86    1
    19    73    72    1
    20    15    16   ar
    21    15    14    1
    22    72    69    1
    23     3     4    2
    24    86    78   am
    25    14    11    1
    26    69    70    1
    27    69    68    1
    28    79    78    2
    29    71    70    2
    30    51    49   am
    31    78    77    1
    32    49    48    1
    33    49    50    2
    34    48    45    1
    35    58    57    1
    36    68    62   am
    37    47    46    2
    38    80    77    1
    39    80    81    1
    40    11    10    1
    41    11    12    1
    42    63    62    2
    43    62    61    1
    44    64    65    1
    45    64    61    1
    46    77    76    1
    47    46    45    1
    48    46    52   am
    49    45    44    1
    50    67    65   ar
    51    12    18   am
    52    12    13    2
    53    53    52    1
    54    53    56    1
    55    53    54    1
    56    18    19    1
    57    81    82   ar
    58    81    83   ar
    59    82    84   ar
    60    57    56    1
    61    57    59    1
    62    65    66   ar
    63    61    60    1
    64    55    54    2
    65    22    19    1
    66    30    28    1
    67    19    20    1
    68    84    85   ar
    69    83    85   ar
    70    29    28    1
    71    28    27    1
    72    27    24    1
    73    20    21    2
    74    34    33    2
    75    23    24    1
    76    24    25    1
    77    39    38    2
    78    38    37    1
    79    33    36   am
    80    33    32    1
    81    37    36    1
    82    37    40    1
    83    43    41    1
    84    32    35    1
    85    32    31    1
    86    25    26    2
    87    40    41    1
    88    41    42    1
