@<TRIPOS>MOLECULE
tmp/2d62A00.pdb
 70 67 0 0 0
SMALL
GASTEIGER

@<TRIPOS>ATOM
      1  N          5.5220   51.0070   34.3880 N.3    19  ALA19      -0.1245
      2  CA         4.8390   50.9430   33.1020 C.3    19  ALA19       0.1562
      3  C          3.9150   49.7360   33.0080 C.2    19  ALA19       0.2260
      4  O          2.8210   49.8180   32.4470 O.2    19  ALA19      -0.2867
      5  CB         5.8580   50.9010   31.9740 C.3    19  ALA19       0.0290
      6  N         -5.6540   53.0190   26.5970 N.3    38  PRO38      -0.2102
      7  CA        -5.3340   54.4210   26.3270 C.3    38  PRO38       0.1504
      8  C         -3.8280   54.6460   26.3140 C.2    38  PRO38       0.2576
      9  O         -3.0540   53.8000   26.7710 O.2    38  PRO38      -0.2718
     10  CB        -6.0320   55.1590   27.4680 C.3    38  PRO38       0.0282
     11  CG        -5.9440   54.1840   28.5890 C.3    38  PRO38       0.0208
     12  CD        -6.2690   52.8620   27.9260 C.3    38  PRO38       0.0893
     13  N         -3.4140   55.7830   25.7740 N.am   39  SER39      -0.1938
     14  CA        -2.0000   56.1200   25.7060 C.3    39  SER39       0.2055
     15  C         -1.3620   56.0390   27.0920 C.2    39  SER39       0.2644
     16  O         -1.9200   56.5350   28.0750 O.2    39  SER39      -0.2714
     17  CB        -1.8320   57.5280   25.1350 C.3    39  SER39       0.2130
     18  OG        -0.4620   57.8700   25.0430 O.3    39  SER39      -0.2179
     19  N         -0.2000   55.3930   27.1630 N.am   40  GLY40      -0.1939
     20  CA         0.5110   55.2540   28.4220 C.3    40  GLY40       0.2014
     21  C          0.0510   54.1190   29.3230 C.2    40  GLY40       0.2639
     22  O          0.4260   54.0680   30.4950 O.2    40  GLY40      -0.2714
     23  N         -0.7410   53.1920   28.7950 N.am   41  CYS41      -0.1953
     24  CA        -1.2330   52.0940   29.6210 C.3    41  CYS41       0.1843
     25  C         -0.2540   50.9310   29.7500 C.2    41  CYS41       0.2626
     26  O         -0.5130   49.9870   30.4910 O.2    41  CYS41      -0.2714
     27  CB        -2.5610   51.5700   29.0760 C.3    41  CYS41       0.0997
     28  SG        -2.3960   50.7020   27.5100 S.3    41  CYS41      -0.0797
     29  N          0.8540   50.9920   29.0160 N.am   42  GLY42      -0.1940
     30  CA         1.8490   49.9360   29.0940 C.3    42  GLY42       0.2014
     31  C          1.7980   48.8810   28.0020 C.2    42  GLY42       0.2639
     32  O          2.5840   47.9270   28.0260 O.2    42  GLY42      -0.2714
     33  N          0.8990   49.0410   27.0360 N.am   43  LYS43      -0.1963
     34  CA         0.7780   48.0530   25.9670 C.3    43  LYS43       0.1728
     35  C          2.0100   47.9390   25.0560 C.2    43  LYS43       0.2617
     36  O          2.3870   46.8370   24.6640 O.2    43  LYS43      -0.2715
     37  CB        -0.4920   48.3130   25.1380 C.3    43  LYS43       0.0311
     38  CG        -0.6210   49.6990   24.5210 C.3    43  LYS43       0.0038
     39  CD        -2.0450   49.8950   23.9580 C.3    43  LYS43       0.0206
     40  CE        -2.1530   51.1420   23.0830 C.3    43  LYS43       0.1093
     41  NZ        -1.9880   52.4140   23.8380 N.3    43  LYS43      -0.1314
     42  N          2.6400   49.0620   24.7280 N.am   44  THR44      -0.1937
     43  CA         3.8320   49.0340   23.8810 C.3    44  THR44       0.2028
     44  C          5.0130   48.3910   24.6130 C.2    44  THR44       0.2642
     45  O          5.7840   47.6340   24.0230 O.2    44  THR44      -0.2714
     46  CB         4.2290   50.4590   23.4280 C.3    44  THR44       0.1808
     47  OG1        3.2530   50.9430   22.5020 O.3    44  THR44      -0.2208
     48  CG2        5.6040   50.4580   22.7450 C.3    44  THR44       0.0379
     49  N          5.1520   48.7010   25.8970 N.am   45  THR45      -0.1950
     50  CA         6.2280   48.1440   26.7100 C.3    45  THR45       0.1897
     51  C          6.0310   46.6350   26.7930 C.2    45  THR45       0.2313
     52  O          6.9930   45.8570   26.7220 O.2    45  THR45      -0.2863
     53  CB         6.2090   48.7490   28.1250 C.3    45  THR45       0.1794
     54  OG1        6.4820   50.1520   28.0340 O.3    45  THR45      -0.2208
     55  CG2        7.2570   48.0900   29.0190 C.3    45  THR45       0.0378
     56  N          2.6410   47.1500   16.3530 N.3   160  ASP160     -0.1239
     57  CA         2.2450   48.2620   17.2060 C.3   160  ASP160      0.1674
     58  C          1.6230   49.3840   16.3720 C.2   160  ASP160      0.2266
     59  O          2.3300   50.1190   15.6770 O.2   160  ASP160     -0.2867
     60  CB         3.4600   48.8110   17.9600 C.3   160  ASP160      0.1410
     61  CG         3.0730   49.7910   19.0480 C.2   160  ASP160      0.3668
     62  OD1        2.0820   50.5250   18.8640 O.co2 160  ASP160     -0.2456
     63  OD2        3.7610   49.8380   20.0860 O.co2 160  ASP160     -0.2456
     64  N         -0.9610   45.8430   18.9830 N.3   191  VAL191     -0.1245
     65  CA        -1.1950   46.9640   19.8930 C.3   191  VAL191      0.1561
     66  C         -1.9260   48.0990   19.1810 C.2   191  VAL191      0.2260
     67  O         -1.5650   48.4690   18.0670 O.2   191  VAL191     -0.2867
     68  CB         0.1420   47.5350   20.4510 C.3   191  VAL191      0.0252
     69  CG1       -0.0850   48.9110   21.0760 C.3   191  VAL191      0.0019
     70  CG2        0.7200   46.5910   21.4980 C.3   191  VAL191      0.0019
@<TRIPOS>BOND
     1    59    58    2
     2    56    57    1
     3    58    57    1
     4    57    60    1
     5    60    61    1
     6    67    66    2
     7    62    61   ar
     8    64    65    1
     9    61    63   ar
    10    66    65    1
    11    65    68    1
    12    68    69    1
    13    68    70    1
    14    47    46    1
    15    48    46    1
    16    40    41    1
    17    40    39    1
    18    46    43    1
    19    43    44    1
    20    43    42    1
    21    39    38    1
    22    45    44    2
    23    38    37    1
    24    44    49   am
    25    36    35    2
    26    42    35   am
    27    18    17    1
    28    35    34    1
    29    17    14    1
    30    37    34    1
    31    14    13    1
    32    14    15    1
    33    13     8   am
    34    49    50    1
    35    34    33    1
    36     8     7    1
    37     8     9    2
    38     7     6    1
    39     7    10    1
    40     6    12    1
    41    50    51    1
    42    50    53    1
    43    52    51    2
    44    33    31   am
    45    15    19   am
    46    15    16    2
    47    19    20    1
    48    10    11    1
    49    28    27    1
    50    12    11    1
    51    31    32    2
    52    31    30    1
    53    54    53    1
    54    53    55    1
    55    20    21    1
    56    23    21   am
    57    23    24    1
    58    29    30    1
    59    29    25   am
    60    27    24    1
    61    21    22    2
    62    24    25    1
    63    25    26    2
    64     5     2    1
    65     4     3    2
    66     3     2    1
    67     2     1    1
