@<TRIPOS>MOLECULE
tmp/2d63A01.pdb
 119 114 0 0 0
SMALL
GASTEIGER

@<TRIPOS>ATOM
      1  N         28.7420   16.4650  -10.9220 N.3    13  ILE13      -0.1231
      2  CA        27.3520   16.1810  -11.2640 C.3    13  ILE13       0.1692
      3  C         26.4270   16.2400  -10.0510 C.2    13  ILE13       0.2591
      4  O         25.4580   17.0030  -10.0370 O.2    13  ILE13      -0.2718
      5  CB        27.2310   14.8020  -11.9430 C.3    13  ILE13       0.0266
      6  CG1       27.9580   14.8410  -13.2920 C.3    13  ILE13       0.0019
      7  CG2       25.7620   14.4250  -12.1220 C.3    13  ILE13       0.0020
      8  CD1       27.9710   13.5270  -14.0210 C.3    13  ILE13       0.0001
      9  N         26.7290   15.4440   -9.0290 N.am   14  LEU14      -0.1980
     10  CA        25.8990   15.4200   -7.8280 C.3    14  LEU14       0.1596
     11  C         25.9100   16.7590   -7.1000 C.2    14  LEU14       0.2287
     12  O         24.9510   17.1050   -6.4060 O.2    14  LEU14      -0.2864
     13  CB        26.3630   14.3080   -6.8790 C.3    14  LEU14       0.0297
     14  CG        26.3290   12.8790   -7.4340 C.3    14  LEU14       0.0022
     15  CD1       26.6840   11.9060   -6.3230 C.3    14  LEU14       0.0001
     16  CD2       24.9470   12.5580   -7.9930 C.3    14  LEU14       0.0001
     17  N         21.7840   16.5780  -13.4070 N.3    33  MET33      -0.1230
     18  CA        21.7170   15.1450  -13.1420 C.3    33  MET33       0.1702
     19  C         20.7440   14.4710  -14.0980 C.2    33  MET33       0.2593
     20  O         19.6940   15.0230  -14.4190 O.2    33  MET33      -0.2718
     21  CB        21.2910   14.8990  -11.6970 C.3    33  MET33       0.0401
     22  CG        22.3020   15.3930  -10.6770 C.3    33  MET33       0.0596
     23  SD        21.7180   15.1730   -8.9900 S.3    33  MET33      -0.1393
     24  CE        21.6780   13.3730   -8.9040 C.3    33  MET33       0.0692
     25  N         21.1000   13.2720  -14.5440 N.am   34  GLY34      -0.1942
     26  CA        20.2650   12.5560  -15.4900 C.3    34  GLY34       0.2014
     27  C         19.0640   11.8260  -14.9280 C.2    34  GLY34       0.2638
     28  O         19.0980   10.6080  -14.7700 O.2    34  GLY34      -0.2714
     29  N         18.0100   12.5680  -14.6070 N.am   35  VAL35      -0.1977
     30  CA        16.7870   11.9600  -14.1020 C.3    35  VAL35       0.1596
     31  C         15.6940   12.3340  -15.0860 C.2    35  VAL35       0.2287
     32  O         15.6890   13.4410  -15.6310 O.2    35  VAL35      -0.2864
     33  CB        16.3960   12.4760  -12.6960 C.3    35  VAL35       0.0276
     34  CG1       17.5170   12.1840  -11.7050 C.3    35  VAL35       0.0022
     35  CG2       16.1020   13.9550  -12.7420 C.3    35  VAL35       0.0022
     36  N         26.0880    2.1170   -9.2840 N.3   104  THR104     -0.1218
     37  CA        27.3280    2.6280   -8.7040 C.3   104  THR104      0.1862
     38  C         27.8450    1.6060   -7.6870 C.2   104  THR104      0.2287
     39  O         29.0460    1.3400   -7.6130 O.2   104  THR104     -0.2866
     40  CB        27.1210    3.9880   -8.0080 C.3   104  THR104      0.1770
     41  OG1       26.5520    4.9200   -8.9380 O.3   104  THR104     -0.2211
     42  CG2       28.4620    4.5410   -7.5160 C.3   104  THR104      0.0375
     43  N         32.0680    9.1230  -17.8180 N.3   130  TRP130     -0.1241
     44  CA        31.2740    9.4710  -16.6600 C.3   130  TRP130      0.1605
     45  C         32.3260    9.7040  -15.5710 C.2   130  TRP130      0.2264
     46  O         33.0990    8.8060  -15.2470 O.2   130  TRP130     -0.2867
     47  CB        30.3640    8.2860  -16.3530 C.3   130  TRP130      0.0550
     48  CG        29.3290    8.5230  -15.3340 C.ar  130  TRP130      0.0003
     49  CD1       28.3800    9.5020  -15.3360 C.ar  130  TRP130      0.0946
     50  CD2       29.0790    7.7190  -14.1790 C.ar  130  TRP130      0.0152
     51  NE1       27.5480    9.3550  -14.2530 N.ar  130  TRP130     -0.2442
     52  CE2       27.9550    8.2670  -13.5240 C.ar  130  TRP130      0.0810
     53  CE3       29.6960    6.5840  -13.6340 C.ar  130  TRP130      0.0012
     54  CZ2       27.4310    7.7200  -12.3460 C.ar  130  TRP130      0.0191
     55  CZ3       29.1730    6.0390  -12.4620 C.ar  130  TRP130      0.0001
     56  CH2       28.0500    6.6110  -11.8330 C.ar  130  TRP130      0.0015
     57  N         27.4160    7.8120  -21.7690 N.3   183  ASN183     -0.1240
     58  CA        27.2900    8.9840  -20.9060 C.3   183  ASN183      0.1653
     59  C         28.7010    9.5680  -20.8380 C.2   183  ASN183      0.2266
     60  O         29.6190    8.9070  -20.3600 O.2   183  ASN183     -0.2867
     61  CB        26.7980    8.5240  -19.5240 C.3   183  ASN183      0.1155
     62  CG        26.5080    9.6720  -18.5700 C.2   183  ASN183      0.2627
     63  OD1       25.8690    9.4730  -17.5320 O.2   183  ASN183     -0.2716
     64  ND2       26.9800   10.8640  -18.9000 N.am  183  ASN183     -0.0877
     65  N         21.4200    2.2510  -19.0280 N.3   214  TYR214     -0.1241
     66  CA        20.3270    2.7960  -19.8350 C.3   214  TYR214      0.1605
     67  C         19.6800    1.8170  -20.8050 C.2   214  TYR214      0.2264
     68  O         19.2150    2.2210  -21.8690 O.2   214  TYR214     -0.2867
     69  CB        20.8280    4.0120  -20.6220 C.3   214  TYR214      0.0534
     70  CG        21.1190    5.2150  -19.7600 C.ar  214  TYR214     -0.0201
     71  CD1       20.0780    5.9890  -19.2480 C.ar  214  TYR214     -0.0009
     72  CD2       22.4290    5.5700  -19.4360 C.ar  214  TYR214     -0.0009
     73  CE1       20.3290    7.0890  -18.4360 C.ar  214  TYR214      0.0417
     74  CE2       22.6920    6.6740  -18.6170 C.ar  214  TYR214      0.0417
     75  CZ        21.6320    7.4250  -18.1250 C.ar  214  TYR214      0.1957
     76  OH        21.8570    8.5120  -17.3190 O.3   214  TYR214     -0.2866
     77  N         17.2200    4.2220  -13.8310 N.3   246  LYS246     -0.1245
     78  CA        16.5710    4.9860  -14.8800 C.3   246  LYS246      0.1561
     79  C         15.4450    4.3020  -15.6480 C.2   246  LYS246      0.2260
     80  O         14.3900    4.9100  -15.8330 O.2   246  LYS246     -0.2867
     81  CB        17.6280    5.5410  -15.8430 C.3   246  LYS246      0.0271
     82  CG        18.5390    6.6030  -15.2030 C.3   246  LYS246      0.0035
     83  CD        19.9310    6.0570  -14.9220 C.3   246  LYS246      0.0206
     84  CE        20.9430    7.1640  -14.5710 C.3   246  LYS246      0.1093
     85  NZ        22.2920    6.6710  -14.8330 N.3   246  LYS246     -0.1314
     86  N         15.4580    5.4520   -8.9490 N.3   251  TYR251     -0.1241
     87  CA        16.6670    6.1320   -8.4980 C.3   251  TYR251      0.1605
     88  C         17.0330    5.9550   -7.0180 C.2   251  TYR251      0.2264
     89  O         18.0600    5.3530   -6.6920 O.2   251  TYR251     -0.2867
     90  CB        16.5470    7.6360   -8.7880 C.3   251  TYR251      0.0534
     91  CG        16.0690    7.9690  -10.1900 C.ar  251  TYR251     -0.0201
     92  CD1       16.9470    7.9540  -11.2730 C.ar  251  TYR251     -0.0009
     93  CD2       14.7300    8.2820  -10.4340 C.ar  251  TYR251     -0.0009
     94  CE1       16.5070    8.2440  -12.5630 C.ar  251  TYR251      0.0417
     95  CE2       14.2790    8.5690  -11.7260 C.ar  251  TYR251      0.0417
     96  CZ        15.1720    8.5480  -12.7820 C.ar  251  TYR251      0.1957
     97  OH        14.7370    8.8300  -14.0570 O.3   251  TYR251     -0.2866
     98  N         20.8260   12.5570  -22.6300 N.3   348  PHE348     -0.1241
     99  CA        21.6930   13.7110  -22.8000 C.3   348  PHE348      0.1605
    100  C         21.9680   14.2440  -24.1900 C.2   348  PHE348      0.2264
    101  O         21.6660   13.6270  -25.2120 O.2   348  PHE348     -0.2867
    102  CB        23.0400   13.4280  -22.1280 C.3   348  PHE348      0.0534
    103  CG        22.9170   12.9350  -20.7150 C.ar  348  PHE348     -0.0203
    104  CD1       22.5130   13.7900  -19.6970 C.ar  348  PHE348     -0.0042
    105  CD2       23.1810   11.6030  -20.4080 C.ar  348  PHE348     -0.0042
    106  CE1       22.3720   13.3260  -18.3890 C.ar  348  PHE348     -0.0003
    107  CE2       23.0420   11.1270  -19.1050 C.ar  348  PHE348     -0.0003
    108  CZ        22.6360   11.9910  -18.0930 C.ar  348  PHE348     -0.0000
    109  N         27.3760   18.9000  -20.9890 N.3   374  ARG374     -0.1245
    110  CA        26.3240   17.8900  -21.0570 C.3   374  ARG374      0.1563
    111  C         25.0260   18.4880  -20.5260 C.2   374  ARG374      0.2260
    112  O         25.0010   19.0680  -19.4440 O.2   374  ARG374     -0.2867
    113  CB        26.6900   16.6610  -20.2170 C.3   374  ARG374      0.0307
    114  CG        25.7740   15.4600  -20.4440 C.3   374  ARG374      0.0489
    115  CD        25.9430   14.4030  -19.3520 C.3   374  ARG374      0.2205
    116  NE        25.2730   14.7840  -18.1090 N.pl3 374  ARG374     -0.0865
    117  CZ        25.2840   14.0530  -16.9980 C.cat 374  ARG374      0.5346
    118  NH1       25.9390   12.8970  -16.9650 N.pl3 374  ARG374      0.1354
    119  NH2       24.6180   14.4630  -15.9250 N.pl3 374  ARG374      0.1354
@<TRIPOS>BOND
     1   101   100    2
     2   100    99    1
     3    99    98    1
     4    99   102    1
     5   102   103    1
     6    68    67    2
     7    57    58    1
     8   110   109    1
     9   110   111    1
    10   110   113    1
    11    58    59    1
    12    58    61    1
    13    59    60    2
    14    67    66    1
    15   103   105   ar
    16   103   104   ar
    17    69    66    1
    18    69    70    1
    19   111   112    2
    20   114   113    1
    21   114   115    1
    22   105   107   ar
    23    66    65    1
    24    70    72   ar
    25    70    71   ar
    26   104   106   ar
    27    61    62    1
    28    72    74   ar
    29   115   116    1
    30    71    73   ar
    31   107   108   ar
    32    64    62   am
    33    74    75   ar
    34    62    63    2
    35    73    75   ar
    36   106   108   ar
    37    75    76    1
    38   116   117    2
    39    43    44    1
    40   117   118    1
    41   117   119    1
    42    44    47    1
    43    44    45    1
    44    47    48    1
    45    81    82    1
    46    81    78    1
    47    80    79    2
    48    79    78    1
    49    32    31    2
    50    45    46    2
    51    26    27    1
    52    26    25    1
    53    49    48   ar
    54    49    51   ar
    55    48    50   ar
    56    82    83    1
    57    31    30    1
    58    27    28    2
    59    27    29   am
    60    83    84    1
    61    78    77    1
    62    85    84    1
    63    29    30    1
    64    25    19   am
    65    20    19    2
    66    51    52   ar
    67    50    53   ar
    68    50    52   ar
    69    30    33    1
    70    19    18    1
    71    97    96    1
    72     8     6    1
    73    53    55   ar
    74    52    54   ar
    75    17    18    1
    76     6     5    1
    77    18    21    1
    78    96    94   ar
    79    96    95   ar
    80    35    33    1
    81    33    34    1
    82    94    92   ar
    83    55    56   ar
    84    54    56   ar
    85     7     5    1
    86     5     2    1
    87    95    93   ar
    88    21    22    1
    89    92    91   ar
    90     2     1    1
    91     2     3    1
    92    22    23    1
    93    93    91   ar
    94    91    90    1
    95     3     4    2
    96     3     9   am
    97    36    37    1
    98     9    10    1
    99    23    24    1
   100    86    87    1
   101    41    40    1
   102    90    87    1
   103    37    40    1
   104    37    38    1
   105    87    88    1
   106    40    42    1
   107    16    14    1
   108    10    11    1
   109    10    13    1
   110    38    39    2
   111    14    13    1
   112    14    15    1
   113    11    12    2
   114    88    89    2
