@<TRIPOS>MOLECULE
tmp/2d63A00.pdb
 124 118 0 0 0
SMALL
GASTEIGER

@<TRIPOS>ATOM
      1  N         22.3080   -0.0340   -6.3580 N.3   102  GLY102     -0.1210
      2  CA        22.5040    0.7820   -7.5410 C.3   102  GLY102      0.1956
      3  C         23.6360    0.3020   -8.4290 C.2   102  GLY102      0.2612
      4  O         24.4200   -0.5710   -8.0450 O.2   102  GLY102     -0.2717
      5  N         23.7060    0.8590   -9.6350 N.am  103  GLY103     -0.1942
      6  CA        24.7720    0.5030  -10.5510 C.3   103  GLY103      0.2014
      7  C         26.1030    0.9880   -9.9870 C.2   103  GLY103      0.2639
      8  O         27.1390    0.3520  -10.1780 O.2   103  GLY103     -0.2714
      9  N         26.0880    2.1170   -9.2840 N.am  104  THR104     -0.1950
     10  CA        27.3280    2.6280   -8.7040 C.3   104  THR104      0.1897
     11  C         27.8450    1.6060   -7.6870 C.2   104  THR104      0.2313
     12  O         29.0460    1.3400   -7.6130 O.2   104  THR104     -0.2863
     13  CB        27.1210    3.9880   -8.0080 C.3   104  THR104      0.1794
     14  OG1       26.5520    4.9200   -8.9380 O.3   104  THR104     -0.2208
     15  CG2       28.4620    4.5410   -7.5160 C.3   104  THR104      0.0378
     16  N         29.5610   -1.1770   -9.4280 N.3   107  LEU107     -0.1245
     17  CA        30.8850   -0.7910   -9.8930 C.3   107  LEU107      0.1561
     18  C         31.9140   -0.8930   -8.7710 C.2   107  LEU107      0.2260
     19  O         33.0370   -1.3500   -8.9960 O.2   107  LEU107     -0.2867
     20  CB        30.8630    0.6370  -10.4450 C.3   107  LEU107      0.0270
     21  CG        30.2010    0.8200  -11.8100 C.3   107  LEU107      0.0019
     22  CD1       29.9620    2.3010  -12.0640 C.3   107  LEU107      0.0001
     23  CD2       31.0970    0.2060  -12.8960 C.3   107  LEU107      0.0001
     24  N         32.0680    9.1230  -17.8180 N.3   130  TRP130     -0.1241
     25  CA        31.2740    9.4710  -16.6600 C.3   130  TRP130      0.1605
     26  C         32.3260    9.7040  -15.5710 C.2   130  TRP130      0.2264
     27  O         33.0990    8.8060  -15.2470 O.2   130  TRP130     -0.2867
     28  CB        30.3640    8.2860  -16.3530 C.3   130  TRP130      0.0550
     29  CG        29.3290    8.5230  -15.3340 C.ar  130  TRP130      0.0003
     30  CD1       28.3800    9.5020  -15.3360 C.ar  130  TRP130      0.0946
     31  CD2       29.0790    7.7190  -14.1790 C.ar  130  TRP130      0.0152
     32  NE1       27.5480    9.3550  -14.2530 N.ar  130  TRP130     -0.2442
     33  CE2       27.9550    8.2670  -13.5240 C.ar  130  TRP130      0.0810
     34  CE3       29.6960    6.5840  -13.6340 C.ar  130  TRP130      0.0012
     35  CZ2       27.4310    7.7200  -12.3460 C.ar  130  TRP130      0.0191
     36  CZ3       29.1730    6.0390  -12.4620 C.ar  130  TRP130      0.0001
     37  CH2       28.0500    6.6110  -11.8330 C.ar  130  TRP130      0.0015
     38  N         30.3690    1.3230  -22.1800 N.3   178  HIS178     -0.1241
     39  CA        28.9980    1.6440  -21.7950 C.3   178  HIS178      0.1621
     40  C         28.1130    0.7910  -22.7060 C.2   178  HIS178      0.2264
     41  O         28.2620    0.8270  -23.9330 O.2   178  HIS178     -0.2867
     42  CB        28.6840    3.1200  -22.0300 C.3   178  HIS178      0.0745
     43  CG        29.5050    4.0600  -21.2020 C.ar  178  HIS178      0.0817
     44  ND1       28.9630    5.1640  -20.5840 N.ar  178  HIS178     -0.2268
     45  CD2       30.8330    4.0990  -20.9460 C.ar  178  HIS178      0.1154
     46  CE1       29.9230    5.8470  -19.9860 C.ar  178  HIS178      0.1986
     47  NE2       31.0680    5.2230  -20.1920 N.ar  178  HIS178     -0.2212
     48  N         27.4160    7.8120  -21.7690 N.3   183  ASN183     -0.1240
     49  CA        27.2900    8.9840  -20.9060 C.3   183  ASN183      0.1653
     50  C         28.7010    9.5680  -20.8380 C.2   183  ASN183      0.2266
     51  O         29.6190    8.9070  -20.3600 O.2   183  ASN183     -0.2867
     52  CB        26.7980    8.5240  -19.5240 C.3   183  ASN183      0.1155
     53  CG        26.5080    9.6720  -18.5700 C.2   183  ASN183      0.2627
     54  OD1       25.8690    9.4730  -17.5320 O.2   183  ASN183     -0.2716
     55  ND2       26.9800   10.8640  -18.9000 N.am  183  ASN183     -0.0877
     56  N         29.2080   -1.1280  -18.2520 N.3   211  ASP211     -0.1239
     57  CA        28.4120   -0.3100  -17.3560 C.3   211  ASP211      0.1674
     58  C         27.1290   -0.1800  -18.1750 C.2   211  ASP211      0.2266
     59  O         27.1010    0.5030  -19.1960 O.2   211  ASP211     -0.2867
     60  CB        29.0610    1.0600  -17.1380 C.3   211  ASP211      0.1410
     61  CG        28.2350    1.9590  -16.2210 C.2   211  ASP211      0.3668
     62  OD1       27.0190    1.7090  -16.0840 O.co2 211  ASP211     -0.2456
     63  OD2       28.7940    2.9190  -15.6500 O.co2 211  ASP211     -0.2456
     64  N         23.5850    1.0860  -17.7070 N.3   213  ALA213     -0.1231
     65  CA        22.6030    1.8300  -16.9300 C.3   213  ALA213      0.1694
     66  C         21.4140    2.3890  -17.7040 C.2   213  ALA213      0.2592
     67  O         20.4930    2.9380  -17.0960 O.2   213  ALA213     -0.2718
     68  CB        23.2990    2.9670  -16.1970 C.3   213  ALA213      0.0304
     69  N         21.4200    2.2510  -19.0280 N.am  214  TYR214     -0.1976
     70  CA        20.3270    2.7960  -19.8350 C.3   214  TYR214      0.1639
     71  C         19.6800    1.8170  -20.8050 C.2   214  TYR214      0.2290
     72  O         19.2150    2.2210  -21.8690 O.2   214  TYR214     -0.2864
     73  CB        20.8280    4.0120  -20.6220 C.3   214  TYR214      0.0560
     74  CG        21.1190    5.2150  -19.7600 C.ar  214  TYR214     -0.0198
     75  CD1       20.0780    5.9890  -19.2480 C.ar  214  TYR214     -0.0009
     76  CD2       22.4290    5.5700  -19.4360 C.ar  214  TYR214     -0.0009
     77  CE1       20.3290    7.0890  -18.4360 C.ar  214  TYR214      0.0417
     78  CE2       22.6920    6.6740  -18.6170 C.ar  214  TYR214      0.0417
     79  CZ        21.6320    7.4250  -18.1250 C.ar  214  TYR214      0.1957
     80  OH        21.8570    8.5120  -17.3190 O.3   214  TYR214     -0.2866
     81  N         22.0680   -1.1760  -13.8910 N.3   243  SER243     -0.1217
     82  CA        21.2600   -0.3460  -13.0190 C.3   243  SER243      0.1889
     83  C         19.8150   -0.2550  -13.4870 C.2   243  SER243      0.2288
     84  O         19.5360   -0.2350  -14.6830 O.2   243  SER243     -0.2866
     85  CB        21.8490    1.0600  -12.9540 C.3   243  SER243      0.2089
     86  OG        20.9850    1.9310  -12.2450 O.3   243  SER243     -0.2183
     87  N         17.9010    2.1680  -11.9890 N.3   245  SER245     -0.1202
     88  CA        17.5440    3.5080  -11.5310 C.3   245  SER245      0.2020
     89  C         16.7710    4.2980  -12.5850 C.2   245  SER245      0.2618
     90  O         15.7860    4.9670  -12.2760 O.2   245  SER245     -0.2717
     91  CB        18.8010    4.3070  -11.1680 C.3   245  SER245      0.2103
     92  OG        19.4690    3.7750  -10.0410 O.3   245  SER245     -0.2182
     93  N         17.2200    4.2220  -13.8310 N.am  246  LYS246     -0.1979
     94  CA        16.5710    4.9860  -14.8800 C.3   246  LYS246      0.1596
     95  C         15.4450    4.3020  -15.6480 C.2   246  LYS246      0.2287
     96  O         14.3900    4.9100  -15.8330 O.2   246  LYS246     -0.2864
     97  CB        17.6280    5.5410  -15.8430 C.3   246  LYS246      0.0298
     98  CG        18.5390    6.6030  -15.2030 C.3   246  LYS246      0.0038
     99  CD        19.9310    6.0570  -14.9220 C.3   246  LYS246      0.0206
    100  CE        20.9430    7.1640  -14.5710 C.3   246  LYS246      0.1093
    101  NZ        22.2920    6.6710  -14.8330 N.3   246  LYS246     -0.1314
    102  N         15.4580    5.4520   -8.9490 N.3   251  TYR251     -0.1241
    103  CA        16.6670    6.1320   -8.4980 C.3   251  TYR251      0.1605
    104  C         17.0330    5.9550   -7.0180 C.2   251  TYR251      0.2264
    105  O         18.0600    5.3530   -6.6920 O.2   251  TYR251     -0.2867
    106  CB        16.5470    7.6360   -8.7880 C.3   251  TYR251      0.0534
    107  CG        16.0690    7.9690  -10.1900 C.ar  251  TYR251     -0.0201
    108  CD1       16.9470    7.9540  -11.2730 C.ar  251  TYR251     -0.0009
    109  CD2       14.7300    8.2820  -10.4340 C.ar  251  TYR251     -0.0009
    110  CE1       16.5070    8.2440  -12.5630 C.ar  251  TYR251      0.0417
    111  CE2       14.2790    8.5690  -11.7260 C.ar  251  TYR251      0.0417
    112  CZ        15.1720    8.5480  -12.7820 C.ar  251  TYR251      0.1957
    113  OH        14.7370    8.8300  -14.0570 O.3   251  TYR251     -0.2866
    114  N         17.9740    2.4790   -4.9260 N.3   254  ARG254     -0.1245
    115  CA        19.2840    1.8670   -5.1710 C.3   254  ARG254      0.1563
    116  C         19.2040    0.4170   -5.6370 C.2   254  ARG254      0.2260
    117  O         19.5120   -0.5120   -4.8870 O.2   254  ARG254     -0.2867
    118  CB        20.1410    1.9750   -3.8990 C.3   254  ARG254      0.0307
    119  CG        20.0600    3.3510   -3.2080 C.3   254  ARG254      0.0489
    120  CD        20.3000    4.5150   -4.1830 C.3   254  ARG254      0.2205
    121  NE        21.6580    4.5040   -4.7360 N.pl3 254  ARG254     -0.0865
    122  CZ        21.9330    4.5160   -6.0360 C.cat 254  ARG254      0.5346
    123  NH1       20.9450    4.5460   -6.9270 N.pl3 254  ARG254      0.1354
    124  NH2       23.1950    4.4710   -6.4480 N.pl3 254  ARG254      0.1354
@<TRIPOS>BOND
     1    41    40    2
     2    40    39    1
     3    38    39    1
     4    42    39    1
     5    42    43    1
     6    72    71    2
     7    48    49    1
     8    43    45   ar
     9    43    44   ar
    10    45    47   ar
    11    49    50    1
    12    49    52    1
    13    50    51    2
    14    71    70    1
    15    73    70    1
    16    73    74    1
    17    44    46   ar
    18    47    46   ar
    19    70    69    1
    20    74    76   ar
    21    74    75   ar
    22    52    53    1
    23    76    78   ar
    24    75    77   ar
    25    59    58    2
    26    69    66   am
    27    55    53   am
    28    78    79   ar
    29    53    54    2
    30    77    79   ar
    31    56    57    1
    32    58    57    1
    33    79    80    1
    34    24    25    1
    35    64    65    1
    36    66    67    2
    37    66    65    1
    38    57    60    1
    39    60    61    1
    40    65    68    1
    41    25    28    1
    42    25    26    1
    43    28    29    1
    44    61    62   ar
    45    61    63   ar
    46    97    98    1
    47    97    94    1
    48    96    95    2
    49    95    94    1
    50    26    27    2
    51    30    29   ar
    52    30    32   ar
    53    29    31   ar
    54    98    99    1
    55    99   100    1
    56    94    93    1
    57   101   100    1
    58    84    83    2
    59    32    33   ar
    60    31    34   ar
    61    31    33   ar
    62   113   112    1
    63    81    82    1
    64    93    89   am
    65    34    36   ar
    66    33    35   ar
    67    83    82    1
    68    82    85    1
    69    85    86    1
    70    23    21    1
    71   112   110   ar
    72   112   111   ar
    73    89    90    2
    74    89    88    1
    75   110   108   ar
    76    36    37   ar
    77    35    37   ar
    78    22    21    1
    79    87    88    1
    80    21    20    1
    81   111   109   ar
    82    88    91    1
    83   108   107   ar
    84    91    92    1
    85     6     7    1
    86     6     5    1
    87    20    17    1
    88   109   107   ar
    89   107   106    1
    90     8     7    2
    91     7     9   am
    92    17    16    1
    93    17    18    1
    94     5     3   am
    95     9    10    1
    96    19    18    2
    97   102   103    1
    98    14    13    1
    99   106   103    1
   100    10    13    1
   101    10    11    1
   102   103   104    1
   103     3     4    2
   104     3     2    1
   105    13    15    1
   106    11    12    2
   107     2     1    1
   108   104   105    2
   109   123   122    1
   110   124   122    1
   111   122   121    2
   112   116   115    1
   113   116   117    2
   114   115   114    1
   115   115   118    1
   116   121   120    1
   117   120   119    1
   118   118   119    1
