@<TRIPOS>MOLECULE
tmp/2d6pA00.pdb
 98 91 0 0 0
SMALL
GASTEIGER

@<TRIPOS>ATOM
      1  N         -8.1930    4.3280   26.6290 N.3    42  ARG42      -0.1245
      2  CA        -7.0070    3.4750   26.7040 C.3    42  ARG42       0.1563
      3  C         -5.7470    4.1500   26.1640 C.2    42  ARG42       0.2260
      4  O         -5.8200    5.0690   25.3440 O.2    42  ARG42      -0.2867
      5  CB        -7.2230    2.1940   25.8960 C.3    42  ARG42       0.0307
      6  CG        -8.3290    1.3000   26.3990 C.3    42  ARG42       0.0489
      7  CD        -8.2850   -0.0540   25.7380 C.3    42  ARG42       0.2205
      8  NE        -9.3820   -0.8760   26.2300 N.pl3  42  ARG42      -0.0865
      9  CZ        -9.5510   -2.1650   25.9600 C.cat  42  ARG42       0.5346
     10  NH1       -8.6850   -2.8200   25.1950 N.pl3  42  ARG42       0.1354
     11  NH2      -10.5960   -2.8000   26.4720 N.pl3  42  ARG42       0.1354
     12  N          3.4980   -5.5540   27.3480 N.3    55  HIS55      -0.1241
     13  CA         2.3850   -4.7320   26.9250 C.3    55  HIS55       0.1621
     14  C          1.8100   -4.0590   28.1590 C.2    55  HIS55       0.2264
     15  O          1.3150   -4.7300   29.0670 O.2    55  HIS55      -0.2867
     16  CB         1.3410   -5.6230   26.2440 C.3    55  HIS55       0.0745
     17  CG         0.0890   -4.9140   25.8240 C.ar   55  HIS55       0.0817
     18  ND1        0.0470   -4.0310   24.7660 N.ar   55  HIS55      -0.2268
     19  CD2       -1.1790   -4.9960   26.2930 C.ar   55  HIS55       0.1154
     20  CE1       -1.1870   -3.5850   24.6140 C.ar   55  HIS55       0.1986
     21  NE2       -1.9510   -4.1560   25.5260 N.ar   55  HIS55      -0.2212
     22  N         -1.0250   -1.5800   29.3290 N.3    57  ASN57      -0.1240
     23  CA        -2.2750   -1.0690   28.7990 C.3    57  ASN57       0.1653
     24  C         -3.2840   -0.6570   29.8830 C.2    57  ASN57       0.2266
     25  O         -4.0820   -1.4850   30.3310 O.2    57  ASN57      -0.2867
     26  CB        -2.8720   -2.1080   27.8440 C.3    57  ASN57       0.1155
     27  CG        -4.2000   -1.6750   27.2410 C.2    57  ASN57       0.2627
     28  OD1       -4.3080   -0.6260   26.6020 O.2    57  ASN57      -0.2716
     29  ND2       -5.2150   -2.4990   27.4290 N.am   57  ASN57      -0.0877
     30  N         -6.6840    1.0840   31.2650 N.3    59  ARG59      -0.1245
     31  CA        -8.0330    1.0470   30.7140 C.3    59  ARG59       0.1563
     32  C         -9.0150    1.7400   31.6420 C.2    59  ARG59       0.2260
     33  O         -9.2040    1.3110   32.7810 O.2    59  ARG59      -0.2867
     34  CB        -8.4790   -0.3990   30.4980 C.3    59  ARG59       0.0307
     35  CG        -7.6360   -1.1860   29.5180 C.3    59  ARG59       0.0489
     36  CD        -8.1570   -2.5960   29.3780 C.3    59  ARG59       0.2205
     37  NE        -7.3560   -3.3600   28.4310 N.pl3  59  ARG59      -0.0865
     38  CZ        -7.6440   -4.5840   28.0030 C.cat  59  ARG59       0.5346
     39  NH1       -8.7290   -5.2130   28.4380 N.pl3  59  ARG59       0.1354
     40  NH2       -6.8340   -5.1810   27.1410 N.pl3  59  ARG59       0.1354
     41  N        -12.1000    1.7210   32.2130 N.3    61  GLU61      -0.1245
     42  CA       -13.3100    0.9220   32.1050 C.3    61  GLU61       0.1567
     43  C        -13.4480    0.0950   33.3800 C.2    61  GLU61       0.2260
     44  O        -12.4500   -0.1930   34.0560 O.2    61  GLU61      -0.2867
     45  CB       -13.2150   -0.0400   30.9120 C.3    61  GLU61       0.0388
     46  CG       -12.8110    0.5690   29.5660 C.3    61  GLU61       0.1160
     47  CD       -12.3560   -0.4870   28.5590 C.2    61  GLU61       0.3649
     48  OE1      -12.6210   -1.6880   28.7980 O.co2  61  GLU61      -0.2457
     49  OE2      -11.7270   -0.1250   27.5320 O.co2  61  GLU61      -0.2457
     50  N         -3.7660   -3.4990   32.2170 N.3    67  VAL67      -0.1245
     51  CA        -3.3390   -4.8020   31.7150 C.3    67  VAL67       0.1561
     52  C         -1.8230   -4.8770   31.4630 C.2    67  VAL67       0.2260
     53  O         -1.2390   -4.0280   30.7820 O.2    67  VAL67      -0.2867
     54  CB        -4.0990   -5.1890   30.4150 C.3    67  VAL67       0.0252
     55  CG1       -3.5180   -6.4590   29.8010 C.3    67  VAL67       0.0019
     56  CG2       -5.5760   -5.3810   30.6940 C.3    67  VAL67       0.0019
     57  N          0.8470   -7.6920   29.8000 N.3    69  ASN69      -0.1240
     58  CA         0.8280   -8.9060   28.9830 C.3    69  ASN69       0.1653
     59  C          2.0040   -9.0650   28.0180 C.2    69  ASN69       0.2266
     60  O          2.8830   -8.2030   27.9360 O.2    69  ASN69      -0.2867
     61  CB        -0.4940   -9.0190   28.2160 C.3    69  ASN69       0.1155
     62  CG        -0.9000  -10.4530   27.9770 C.2    69  ASN69       0.2627
     63  OD1       -0.1410  -11.3810   28.2620 O.2    69  ASN69      -0.2716
     64  ND2       -2.1010  -10.6480   27.4540 N.am   69  ASN69      -0.0877
     65  N         -1.7410  -13.4840   22.5190 N.3    76  TRP76      -0.1241
     66  CA        -1.6710  -12.9060   23.8480 C.3    76  TRP76       0.1605
     67  C         -1.6180  -14.0050   24.9070 C.2    76  TRP76       0.2264
     68  O         -2.4050  -14.9530   24.8680 O.2    76  TRP76      -0.2867
     69  CB        -2.8630  -11.9790   24.0970 C.3    76  TRP76       0.0550
     70  CG        -2.7850  -10.6990   23.3140 C.ar   76  TRP76       0.0003
     71  CD1       -3.5750  -10.3290   22.2600 C.ar   76  TRP76       0.0946
     72  CD2       -1.8540   -9.6250   23.5120 C.ar   76  TRP76       0.0152
     73  NE1       -3.1990   -9.0920   21.7970 N.ar   76  TRP76      -0.2442
     74  CE2       -2.1460   -8.6360   22.5450 C.ar   76  TRP76       0.0810
     75  CE3       -0.8050   -9.4020   24.4150 C.ar   76  TRP76       0.0012
     76  CZ2       -1.4280   -7.4420   22.4560 C.ar   76  TRP76       0.0191
     77  CZ3       -0.0920   -8.2170   24.3260 C.ar   76  TRP76       0.0001
     78  CH2       -0.4060   -7.2510   23.3500 C.ar   76  TRP76       0.0015
     79  N         -3.3280  -12.6090   31.0600 N.3    79  GLU79      -0.1245
     80  CA        -3.1540  -11.2350   31.4930 C.3    79  GLU79       0.1567
     81  C         -2.8630  -11.1750   32.9800 C.2    79  GLU79       0.2260
     82  O         -3.4010  -11.9690   33.7590 O.2    79  GLU79      -0.2867
     83  CB        -4.3980  -10.4020   31.1700 C.3    79  GLU79       0.0388
     84  CG        -4.6180  -10.1570   29.6870 C.3    79  GLU79       0.1160
     85  CD        -5.8090   -9.2690   29.4040 C.2    79  GLU79       0.3649
     86  OE1       -6.7850   -9.2900   30.1910 O.co2  79  GLU79      -0.2457
     87  OE2       -5.7750   -8.5450   28.3890 O.co2  79  GLU79      -0.2457
     88  N         -3.6120   -8.4390   35.5260 N.3    81  ARG81      -0.1245
     89  CA        -4.3630   -7.1950   35.7040 C.3    81  ARG81       0.1563
     90  C         -4.2310   -6.6020   37.1020 C.2    81  ARG81       0.2260
     91  O         -4.5720   -7.2500   38.0930 O.2    81  ARG81      -0.2867
     92  CB        -5.8460   -7.4240   35.4280 C.3    81  ARG81       0.0307
     93  CG        -6.1800   -7.7080   33.9930 C.3    81  ARG81       0.0489
     94  CD        -7.6810   -7.7620   33.8080 C.3    81  ARG81       0.2205
     95  NE        -8.0460   -8.1120   32.4390 N.pl3  81  ARG81      -0.0865
     96  CZ        -9.2540   -7.9190   31.9130 C.cat  81  ARG81       0.5346
     97  NH1      -10.2200   -7.3700   32.6420 N.pl3  81  ARG81       0.1354
     98  NH2       -9.4910   -8.2740   30.6530 N.pl3  81  ARG81       0.1354
@<TRIPOS>BOND
     1    73    71   ar
     2    73    74   ar
     3    71    70   ar
     4    76    74   ar
     5    76    78   ar
     6    65    66    1
     7    74    72   ar
     8    70    72   ar
     9    70    69    1
    10    78    77   ar
    11    72    75   ar
    12    66    69    1
    13    66    67    1
    14    77    75   ar
    15    20    18   ar
    16    20    21   ar
    17    18    17   ar
    18    68    67    2
    19    10     9    1
    20     4     3    2
    21    21    19   ar
    22     7     8    1
    23     7     6    1
    24    17    16    1
    25    17    19   ar
    26     5     6    1
    27     5     2    1
    28     9     8    2
    29     9    11    1
    30     3     2    1
    31    16    13    1
    32    28    27    2
    33     1     2    1
    34    13    12    1
    35    13    14    1
    36    40    38    1
    37    27    29   am
    38    27    26    1
    39    64    62   am
    40    49    47   ar
    41    26    23    1
    42    60    59    2
    43    62    61    1
    44    62    63    2
    45    38    37    2
    46    38    39    1
    47    59    58    1
    48    14    15    2
    49    61    58    1
    50    87    85   ar
    51    37    36    1
    52    47    48   ar
    53    47    46    1
    54    23    22    1
    55    23    24    1
    56    58    57    1
    57    36    35    1
    58    85    84    1
    59    85    86   ar
    60    35    34    1
    61    46    45    1
    62    84    83    1
    63    55    54    1
    64    24    25    2
    65    54    56    1
    66    54    51    1
    67    34    31    1
    68    98    96    1
    69    31    30    1
    70    31    32    1
    71    53    52    2
    72    45    42    1
    73    79    80    1
    74    83    80    1
    75    52    51    1
    76    80    81    1
    77    32    33    2
    78    51    50    1
    79    96    95    2
    80    96    97    1
    81    42    41    1
    82    42    43    1
    83    95    94    1
    84    81    82    2
    85    43    44    2
    86    94    93    1
    87    93    92    1
    88    92    89    1
    89    88    89    1
    90    89    90    1
    91    90    91    2
