@<TRIPOS>MOLECULE
tmp/2d6yB00.pdb
 96 90 0 0 0
SMALL
GASTEIGER

@<TRIPOS>ATOM
      1  N         35.0370   34.1570   88.7500 N.3    62  LEU62      -0.1245
      2  CA        34.1800   33.2920   87.9420 C.3    62  LEU62       0.1561
      3  C         33.8110   32.0260   88.7090 C.2    62  LEU62       0.2260
      4  O         32.6560   31.6050   88.6930 O.2    62  LEU62      -0.2867
      5  CB        34.8760   32.9060   86.6310 C.3    62  LEU62       0.0270
      6  CG        34.2380   31.7500   85.8410 C.3    62  LEU62       0.0019
      7  CD1       32.8540   32.1510   85.3310 C.3    62  LEU62       0.0001
      8  CD2       35.1270   31.3980   84.6660 C.3    62  LEU62       0.0001
      9  N         27.6920   30.4430   82.5650 N.3    80  LEU80      -0.1245
     10  CA        29.0650   30.5590   82.0880 C.3    80  LEU80       0.1561
     11  C         29.1270   31.4890   80.8730 C.2    80  LEU80       0.2260
     12  O         29.9720   32.3770   80.8080 O.2    80  LEU80      -0.2867
     13  CB        29.6380   29.1850   81.7280 C.3    80  LEU80       0.0270
     14  CG        31.1020   29.2030   81.2740 C.3    80  LEU80       0.0019
     15  CD1       32.0050   29.6370   82.4400 C.3    80  LEU80       0.0001
     16  CD2       31.4950   27.8190   80.7690 C.3    80  LEU80       0.0001
     17  N         31.2030   35.2720   80.6680 N.3    84  HIS84      -0.1241
     18  CA        32.2300   35.6090   79.6830 C.3    84  HIS84       0.1621
     19  C         31.8620   36.8280   78.8430 C.2    84  HIS84       0.2264
     20  O         32.7150   37.6620   78.5340 O.2    84  HIS84      -0.2867
     21  CB        32.4880   34.4190   78.7710 C.3    84  HIS84       0.0745
     22  CG        33.2140   33.3060   79.4490 C.ar   84  HIS84       0.0817
     23  ND1       32.9500   31.9780   79.1940 N.ar   84  HIS84      -0.2268
     24  CD2       34.1710   33.3250   80.4070 C.ar   84  HIS84       0.1154
     25  CE1       33.7080   31.2270   79.9720 C.ar   84  HIS84       0.1986
     26  NE2       34.4570   32.0210   80.7170 N.ar   84  HIS84      -0.2212
     27  N         38.9610   37.6940   81.3170 N.3    90  LEU90      -0.1231
     28  CA        39.3750   36.3810   81.7970 C.3    90  LEU90       0.1693
     29  C         39.8920   35.4800   80.6760 C.2    90  LEU90       0.2591
     30  O         41.0720   35.1200   80.6630 O.2    90  LEU90      -0.2718
     31  CB        38.2100   35.7110   82.5330 C.3    90  LEU90       0.0284
     32  CG        38.5450   34.7380   83.6690 C.3    90  LEU90       0.0019
     33  CD1       37.2540   34.1770   84.2190 C.3    90  LEU90       0.0001
     34  CD2       39.4230   33.6120   83.1810 C.3    90  LEU90       0.0001
     35  N         39.0270   35.1220   79.7300 N.am   91  LEU91      -0.1980
     36  CA        39.4550   34.2560   78.6320 C.3    91  LEU91       0.1596
     37  C         40.6400   34.8400   77.8720 C.2    91  LEU91       0.2287
     38  O         41.5670   34.1180   77.5150 O.2    91  LEU91      -0.2864
     39  CB        38.2890   33.9590   77.6780 C.3    91  LEU91       0.0297
     40  CG        37.2060   33.0510   78.2910 C.3    91  LEU91       0.0022
     41  CD1       36.1200   32.7620   77.2660 C.3    91  LEU91       0.0001
     42  CD2       37.8380   31.7410   78.7820 C.3    91  LEU91       0.0001
     43  N         43.6960   34.1660   79.8650 N.3    94  LEU94      -0.1245
     44  CA        43.9310   32.7320   79.8400 C.3    94  LEU94       0.1561
     45  C         44.6570   32.3320   78.5570 C.2    94  LEU94       0.2260
     46  O         45.5430   31.4800   78.5810 O.2    94  LEU94      -0.2867
     47  CB        42.6000   31.9870   79.8970 C.3    94  LEU94       0.0270
     48  CG        42.6680   30.5350   80.3520 C.3    94  LEU94       0.0019
     49  CD1       43.0670   30.5290   81.8270 C.3    94  LEU94       0.0001
     50  CD2       41.3070   29.8460   80.1570 C.3    94  LEU94       0.0001
     51  N         42.3350   24.7290   92.0740 N.3   114  HIS114     -0.1226
     52  CA        41.2430   25.3350   91.3420 C.3   114  HIS114      0.1752
     53  C         40.5280   24.2620   90.5160 C.2   114  HIS114      0.2596
     54  O         39.3170   24.0940   90.6230 O.2   114  HIS114     -0.2718
     55  CB        41.8060   26.4310   90.4350 C.3   114  HIS114      0.0759
     56  CG        40.8410   26.9450   89.4120 C.ar  114  HIS114      0.0818
     57  ND1       39.9250   27.9390   89.6820 N.ar  114  HIS114     -0.2268
     58  CD2       40.6660   26.6150   88.1100 C.ar  114  HIS114      0.1154
     59  CE1       39.2310   28.2030   88.5880 C.ar  114  HIS114      0.1986
     60  NE2       39.6600   27.4120   87.6210 N.ar  114  HIS114     -0.2212
     61  N         41.2830   23.5240   89.7070 N.am  115  TYR115     -0.1976
     62  CA        40.7030   22.4840   88.8640 C.3   115  TYR115      0.1639
     63  C         40.2480   21.2620   89.6440 C.2   115  TYR115      0.2290
     64  O         39.2390   20.6550   89.3020 O.2   115  TYR115     -0.2864
     65  CB        41.6990   22.0600   87.7900 C.3   115  TYR115      0.0560
     66  CG        41.8650   23.0890   86.7080 C.ar  115  TYR115     -0.0198
     67  CD1       40.7740   23.4870   85.9250 C.ar  115  TYR115     -0.0009
     68  CD2       43.1010   23.6860   86.4730 C.ar  115  TYR115     -0.0009
     69  CE1       40.9130   24.4570   84.9350 C.ar  115  TYR115      0.0417
     70  CE2       43.2470   24.6610   85.4840 C.ar  115  TYR115      0.0417
     71  CZ        42.1520   25.0400   84.7240 C.ar  115  TYR115      0.1957
     72  OH        42.3030   26.0090   83.7610 O.3   115  TYR115     -0.2866
     73  N         36.7190   21.8660   90.6350 N.3   118  LYS118     -0.1245
     74  CA        35.7430   21.7620   89.5550 C.3   118  LYS118      0.1561
     75  C         35.5570   20.2980   89.1650 C.2   118  LYS118      0.2260
     76  O         34.4300   19.8330   88.9960 O.2   118  LYS118     -0.2867
     77  CB        36.1820   22.6000   88.3460 C.3   118  LYS118      0.0271
     78  CG        36.2510   24.1010   88.6520 C.3   118  LYS118      0.0035
     79  CD        36.6890   24.9440   87.4570 C.3   118  LYS118      0.0206
     80  CE        35.6130   24.9800   86.3740 C.3   118  LYS118      0.1093
     81  NZ        35.9250   25.9490   85.2830 N.3   118  LYS118     -0.1314
     82  N         33.6660   22.8250   78.5910 N.3   145  VAL145     -0.1245
     83  CA        34.2420   24.1660   78.5960 C.3   145  VAL145      0.1561
     84  C         34.6660   24.5580   77.1750 C.2   145  VAL145      0.2260
     85  O         34.4860   25.7030   76.7570 O.2   145  VAL145     -0.2867
     86  CB        35.4660   24.2220   79.5370 C.3   145  VAL145      0.0252
     87  CG1       36.1820   25.5430   79.3950 C.3   145  VAL145      0.0019
     88  CG2       35.0080   24.0060   80.9820 C.3   145  VAL145      0.0019
     89  N         33.5290   28.0440   75.2550 N.3   148  ASN148     -0.1240
     90  CA        34.4780   29.1290   75.0100 C.3   148  ASN148      0.1653
     91  C         35.0860   29.2540   73.6250 C.2   148  ASN148      0.2266
     92  O         35.6400   30.3080   73.2910 O.2   148  ASN148     -0.2867
     93  CB        35.6080   29.0360   76.0410 C.3   148  ASN148      0.1155
     94  CG        35.0950   29.0620   77.4680 C.2   148  ASN148      0.2627
     95  OD1       35.8290   28.7760   78.4230 O.2   148  ASN148     -0.2716
     96  ND2       33.8340   29.4150   77.6250 N.am  148  ASN148     -0.0877
@<TRIPOS>BOND
     1    92    91    2
     2    91    90    1
     3    90    89    1
     4    90    93    1
     5    93    94    1
     6    85    84    2
     7    84    83    1
     8    41    40    1
     9    94    96   am
    10    94    95    2
    11    38    37    2
    12    39    40    1
    13    39    36    1
    14    37    36    1
    15    40    42    1
    16    20    19    2
    17    45    46    2
    18    45    44    1
    19    82    83    1
    20    83    86    1
    21    36    35    1
    22    21    22    1
    23    21    18    1
    24    19    18    1
    25    23    22   ar
    26    23    25   ar
    27    87    86    1
    28    22    24   ar
    29    86    88    1
    30    18    17    1
    31    35    29   am
    32    44    43    1
    33    44    47    1
    34    47    48    1
    35    25    26   ar
    36    50    48    1
    37    48    49    1
    38    24    26   ar
    39    30    29    2
    40    29    28    1
    41    16    14    1
    42    12    11    2
    43    11    10    1
    44    14    13    1
    45    14    15    1
    46    27    28    1
    47    13    10    1
    48    28    31    1
    49    10     9    1
    50    31    32    1
    51    34    32    1
    52    32    33    1
    53    72    71    1
    54     8     6    1
    55    71    69   ar
    56    71    70   ar
    57    69    67   ar
    58    81    80    1
    59     7     6    1
    60    70    68   ar
    61     6     5    1
    62    67    66   ar
    63    80    79    1
    64    68    66   ar
    65     5     2    1
    66    66    65    1
    67    79    78    1
    68    60    58   ar
    69    60    59   ar
    70    65    62    1
    71     2     3    1
    72     2     1    1
    73    58    56   ar
    74    77    78    1
    75    77    74    1
    76    59    57   ar
    77     4     3    2
    78    62    63    1
    79    62    61    1
    80    76    75    2
    81    75    74    1
    82    64    63    2
    83    56    57   ar
    84    56    55    1
    85    74    73    1
    86    61    53   am
    87    55    52    1
    88    53    54    2
    89    53    52    1
    90    52    51    1
