@<TRIPOS>MOLECULE
tmp/2d7cB00.pdb
 169 163 0 0 0
SMALL
GASTEIGER

@<TRIPOS>ATOM
      1  N         37.6880   29.3740   18.2590 N.3    14  SER14      -0.1202
      2  CA        36.7450   28.3910   17.7540 C.3    14  SER14       0.2020
      3  C         36.0280   29.0420   16.5690 C.2    14  SER14       0.2619
      4  O         35.6800   30.2270   16.6220 O.2    14  SER14      -0.2717
      5  CB        35.7210   28.0460   18.8460 C.3    14  SER14       0.2103
      6  OG        34.6750   27.2320   18.3470 O.3    14  SER14      -0.2182
      7  N         35.8340   28.2800   15.4980 N.am   15  GLY15      -0.1942
      8  CA        35.1370   28.7990   14.3340 C.3    15  GLY15       0.2014
      9  C         35.9360   29.4890   13.2390 C.2    15  GLY15       0.2639
     10  O         35.3730   29.7980   12.1890 O.2    15  GLY15      -0.2714
     11  N         37.2280   29.7260   13.4440 N.am   16  VAL16      -0.1963
     12  CA        38.0150   30.4170   12.4210 C.3    16  VAL16       0.1727
     13  C         38.3400   29.5700   11.1920 C.2    16  VAL16       0.2617
     14  O         38.6810   30.1140   10.1410 O.2    16  VAL16      -0.2715
     15  CB        39.3320   30.9910   12.9970 C.3    16  VAL16       0.0290
     16  CG1       39.0190   31.9870   14.1020 C.3    16  VAL16       0.0023
     17  CG2       40.2210   29.8700   13.5250 C.3    16  VAL16       0.0023
     18  N         38.2460   28.2500   11.3220 N.am   17  GLY17      -0.1940
     19  CA        38.5120   27.3850   10.1820 C.3    17  GLY17       0.2014
     20  C         39.7230   26.4760   10.2750 C.2    17  GLY17       0.2639
     21  O         40.1780   25.9560    9.2550 O.2    17  GLY17      -0.2714
     22  N         40.2390   26.2690   11.4830 N.am   18  LYS18      -0.1963
     23  CA        41.4060   25.4120   11.6760 C.3    18  LYS18       0.1728
     24  C         41.2310   24.0090   11.0920 C.2    18  LYS18       0.2617
     25  O         42.0730   23.5360   10.3270 O.2    18  LYS18      -0.2715
     26  CB        41.7380   25.2920   13.1690 C.3    18  LYS18       0.0311
     27  CG        42.1610   26.5990   13.8180 C.3    18  LYS18       0.0038
     28  CD        42.5100   26.4090   15.2900 C.3    18  LYS18       0.0206
     29  CE        41.3210   25.8910   16.1040 C.3    18  LYS18       0.1093
     30  NZ        40.1500   26.8320   16.0840 N.3    18  LYS18      -0.1314
     31  N         40.1370   23.3420   11.4480 N.am   19  SER19      -0.1936
     32  CA        39.9100   21.9870   10.9580 C.3    19  SER19       0.2055
     33  C         39.7570   21.8860    9.4550 C.2    19  SER19       0.2643
     34  O         40.1240   20.8730    8.8660 O.2    19  SER19      -0.2714
     35  CB        38.6960   21.3710   11.6410 C.3    19  SER19       0.2130
     36  OG        38.9560   21.2390   13.0240 O.3    19  SER19      -0.2179
     37  N         39.2130   22.9250    8.8310 N.am   20  ASN20      -0.1971
     38  CA        39.0580   22.9000    7.3860 C.3    20  ASN20       0.1688
     39  C         40.3620   23.2450    6.6820 C.2    20  ASN20       0.2292
     40  O         40.5640   22.8540    5.5310 O.2    20  ASN20      -0.2864
     41  CB        37.9150   23.8090    6.9530 C.3    20  ASN20       0.1181
     42  CG        36.5870   23.0890    6.9930 C.2    20  ASN20       0.2629
     43  OD1       36.2640   22.3200    6.0840 O.2    20  ASN20      -0.2716
     44  ND2       35.8230   23.2940    8.0710 N.am   20  ASN20      -0.0877
     45  N         36.7920   20.1510    2.0220 N.3    30  PHE30      -0.1227
     46  CA        36.2170   21.2680    2.7540 C.3    30  PHE30       0.1736
     47  C         34.8040   20.8570    3.1390 C.2    30  PHE30       0.2595
     48  O         34.1250   20.1770    2.3750 O.2    30  PHE30      -0.2718
     49  CB        36.1470   22.5230    1.8800 C.3    30  PHE30       0.0547
     50  CG        35.4510   23.6750    2.5480 C.ar   30  PHE30      -0.0202
     51  CD1       36.0860   24.3980    3.5540 C.ar   30  PHE30      -0.0042
     52  CD2       34.1370   23.9990    2.2190 C.ar   30  PHE30      -0.0042
     53  CE1       35.4230   25.4240    4.2260 C.ar   30  PHE30      -0.0003
     54  CE2       33.4640   25.0240    2.8850 C.ar   30  PHE30      -0.0003
     55  CZ        34.1110   25.7380    3.8940 C.ar   30  PHE30      -0.0000
     56  N         34.3660   21.2720    4.3220 N.am   31  ASN31      -0.1960
     57  CA        33.0240   20.9360    4.7870 C.3    31  ASN31       0.1819
     58  C         32.3840   22.1500    5.4360 C.2    31  ASN31       0.2621
     59  O         32.8360   22.6220    6.4790 O.2    31  ASN31      -0.2715
     60  CB        33.0870   19.7800    5.7870 C.3    31  ASN31       0.1195
     61  CG        31.7100   19.3540    6.2810 C.2    31  ASN31       0.2630
     62  OD1       30.6810   19.7820    5.7490 O.2    31  ASN31      -0.2716
     63  ND2       31.6880   18.5000    7.2970 N.am   31  ASN31      -0.0877
     64  N         31.3270   22.6550    4.8100 N.am   32  LEU32      -0.1977
     65  CA        30.6380   23.8240    5.3340 C.3    32  LEU32       0.1596
     66  C         29.9370   23.5120    6.6530 C.2    32  LEU32       0.2287
     67  O         29.6930   24.4070    7.4600 O.2    32  LEU32      -0.2864
     68  CB        29.6100   24.3280    4.3150 C.3    32  LEU32       0.0297
     69  CG        28.9660   25.6800    4.6330 C.3    32  LEU32       0.0022
     70  CD1       30.0530   26.7360    4.7780 C.3    32  LEU32       0.0001
     71  CD2       27.9950   26.0640    3.5200 C.3    32  LEU32       0.0001
     72  N         31.0960   21.4890    9.1600 N.3    34  SER34      -0.1202
     73  CA        31.9680   20.9400   10.1980 C.3    34  SER34       0.2020
     74  C         31.5670   21.4230   11.5910 C.2    34  SER34       0.2619
     75  O         31.1480   22.5670   11.7650 O.2    34  SER34      -0.2717
     76  CB        33.4290   21.3140    9.9130 C.3    34  SER34       0.2103
     77  OG        33.5920   22.7240    9.8750 O.3    34  SER34      -0.2182
     78  N         31.6920   20.5400   12.5810 N.am   35  LYS35      -0.1965
     79  CA        31.3380   20.8700   13.9610 C.3    35  LYS35       0.1728
     80  C         32.5920   21.1550   14.7870 C.2    35  LYS35       0.2617
     81  O         33.7020   20.8160   14.3720 O.2    35  LYS35      -0.2715
     82  CB        30.5590   19.7100   14.5920 C.3    35  LYS35       0.0311
     83  CG        29.1830   19.4820   13.9780 C.3    35  LYS35       0.0038
     84  CD        28.2200   20.5950   14.3660 C.3    35  LYS35       0.0206
     85  CE        26.9320   20.5290   13.5560 C.3    35  LYS35       0.1093
     86  NZ        27.1790   20.8010   12.1060 N.3    35  LYS35      -0.1314
     87  N         32.4200   21.7780   15.9500 N.am   36  SER36      -0.1936
     88  CA        33.5640   22.0910   16.7990 C.3    36  SER36       0.2055
     89  C         34.3180   20.7990   17.0990 C.2    36  SER36       0.2643
     90  O         33.7170   19.7680   17.4000 O.2    36  SER36      -0.2714
     91  CB        33.1100   22.7570   18.0980 C.3    36  SER36       0.2130
     92  OG        34.2300   23.2550   18.8130 O.3    36  SER36      -0.2179
     93  N         35.6410   20.8630   17.0130 N.am   37  THR37      -0.1950
     94  CA        36.4830   19.6930   17.2330 C.3    37  THR37       0.1897
     95  C         36.4680   19.1640   18.6540 C.2    37  THR37       0.2313
     96  O         36.5830   19.9170   19.6170 O.2    37  THR37      -0.2863
     97  CB        37.9340   19.9990   16.8210 C.3    37  THR37       0.1794
     98  OG1       37.9330   20.3710   15.4430 O.3    37  THR37      -0.2208
     99  CG2       38.8380   18.7800   16.9890 C.3    37  THR37       0.0378
    100  N         42.8560   20.9770   17.3700 N.3    61  THR61      -0.1203
    101  CA        42.0360   20.8220   18.5630 C.3    61  THR61       0.1994
    102  C         41.1280   22.0480   18.6070 C.2    61  THR61       0.2618
    103  O         41.3850   23.0320   17.9130 O.2    61  THR61      -0.2717
    104  CB        42.9030   20.7260   19.8430 C.3    61  THR61       0.1784
    105  OG1       42.0610   20.4040   20.9590 O.3    61  THR61      -0.2211
    106  CG2       43.6290   22.0340   20.1100 C.3    61  THR61       0.0376
    107  N         40.0590   21.9970   19.3910 N.am   62  ALA62      -0.1965
    108  CA        39.1580   23.1410   19.4540 C.3    62  ALA62       0.1728
    109  C         39.8520   24.3510   20.0690 C.2    62  ALA62       0.2617
    110  O         40.7700   24.2050   20.8780 O.2    62  ALA62      -0.2715
    111  CB        37.9070   22.7900   20.2630 C.3    62  ALA62       0.0334
    112  N         39.4120   25.5410   19.6650 N.am   63  GLY63      -0.1940
    113  CA        39.9750   26.7720   20.1900 C.3    63  GLY63       0.2014
    114  C         38.9910   27.4720   21.1140 C.2    63  GLY63       0.2638
    115  O         39.0450   28.6900   21.2870 O.2    63  GLY63      -0.2714
    116  N         38.0870   26.6990   21.7110 N.am   64  LEU64      -0.1977
    117  CA        37.0800   27.2480   22.6190 C.3    64  LEU64       0.1596
    118  C         37.6880   27.8120   23.8970 C.2    64  LEU64       0.2287
    119  O         37.2640   28.8610   24.3890 O.2    64  LEU64      -0.2864
    120  CB        36.0520   26.1720   22.9950 C.3    64  LEU64       0.0297
    121  CG        34.9800   25.7480   21.9840 C.3    64  LEU64       0.0022
    122  CD1       34.0740   26.9320   21.6700 C.3    64  LEU64       0.0001
    123  CD2       35.6380   25.2150   20.7210 C.3    64  LEU64       0.0001
    124  N         41.9340   33.6630    7.7650 N.3   117  ASN117     -0.1225
    125  CA        41.1270   32.7620    6.9460 C.3   117  ASN117      0.1785
    126  C         39.7750   33.3490    6.5440 C.2   117  ASN117      0.2597
    127  O         39.3480   34.3840    7.0600 O.2   117  ASN117     -0.2718
    128  CB        40.9320   31.4340    7.6970 C.3   117  ASN117      0.1169
    129  CG        40.3500   30.3350    6.8210 C.2   117  ASN117      0.2627
    130  OD1       40.7750   30.1380    5.6790 O.2   117  ASN117     -0.2716
    131  ND2       39.3870   29.5950    7.3640 N.am  117  ASN117     -0.0877
    132  N         39.1210   32.6710    5.6030 N.am  118  LYS118     -0.1980
    133  CA        37.8150   33.0520    5.0740 C.3   118  LYS118      0.1596
    134  C         37.8600   34.2800    4.1620 C.2   118  LYS118      0.2287
    135  O         36.9420   35.1060    4.1700 O.2   118  LYS118     -0.2864
    136  CB        36.8170   33.2770    6.2170 C.3   118  LYS118      0.0298
    137  CG        36.7350   32.1040    7.2020 C.3   118  LYS118      0.0038
    138  CD        35.4410   32.1190    8.0090 C.3   118  LYS118      0.0206
    139  CE        35.4290   31.0330    9.0720 C.3   118  LYS118      0.1093
    140  NZ        34.1570   31.0520    9.8590 N.3   118  LYS118     -0.1314
    141  N         37.2980   34.3650    1.2220 N.3   120  ASP120     -0.1225
    142  CA        36.2380   34.2380    0.2280 C.3   120  ASP120      0.1805
    143  C         35.0120   35.0710    0.6040 C.2   120  ASP120      0.2597
    144  O         34.1780   35.3770   -0.2480 O.2   120  ASP120     -0.2718
    145  CB        35.8420   32.7690    0.0760 C.3   120  ASP120      0.1424
    146  CG        35.3690   32.1650    1.3800 C.2   120  ASP120      0.3668
    147  OD1       34.1440   31.9920    1.5540 O.co2 120  ASP120     -0.2456
    148  OD2       36.2300   31.8790    2.2380 O.co2 120  ASP120     -0.2456
    149  N         34.9020   35.4310    1.8800 N.am  121  LEU121     -0.1979
    150  CA        33.7760   36.2340    2.3560 C.3   121  LEU121      0.1596
    151  C         34.0980   37.7140    2.1470 C.2   121  LEU121      0.2287
    152  O         34.2470   38.4780    3.1000 O.2   121  LEU121     -0.2864
    153  CB        33.5080   35.9500    3.8400 C.3   121  LEU121      0.0297
    154  CG        33.0870   34.5160    4.1950 C.3   121  LEU121      0.0022
    155  CD1       33.0190   34.3650    5.7100 C.3   121  LEU121      0.0001
    156  CD2       31.7460   34.1780    3.5480 C.3   121  LEU121      0.0001
    157  N         39.8260   28.3460    3.1610 N.3   148  ALA148     -0.1231
    158  CA        39.7750   26.8980    3.1230 C.3   148  ALA148      0.1694
    159  C         38.6420   26.5260    2.1710 C.2   148  ALA148      0.2591
    160  O         38.6630   25.4660    1.5450 O.2   148  ALA148     -0.2718
    161  CB        39.5040   26.3430    4.5140 C.3   148  ALA148      0.0304
    162  N         37.6650   27.4200    2.0550 N.am  149  LEU149     -0.1980
    163  CA        36.5120   27.1820    1.1970 C.3   149  LEU149      0.1596
    164  C         36.8300   27.1320   -0.2940 C.2   149  LEU149      0.2287
    165  O         36.4300   26.1820   -0.9680 O.2   149  LEU149     -0.2864
    166  CB        35.4220   28.2250    1.4700 C.3   149  LEU149      0.0297
    167  CG        34.0840   27.9710    0.7620 C.3   149  LEU149      0.0022
    168  CD1       32.9470   28.6080    1.5560 C.3   149  LEU149      0.0001
    169  CD2       34.1400   28.5160   -0.6680 C.3   149  LEU149      0.0001
@<TRIPOS>BOND
     1   165   164    2
     2   169   167    1
     3   164   163    1
     4   144   143    2
     5   145   142    1
     6   145   146    1
     7   142   143    1
     8   142   141    1
     9   143   149   am
    10   167   166    1
    11   167   168    1
    12   163   166    1
    13   163   162    1
    14   146   147   ar
    15   146   148   ar
    16   160   159    2
    17   149   150    1
    18    49    50    1
    19    49    46    1
    20    45    46    1
    21   162   159   am
    22   151   150    1
    23   151   152    2
    24   159   158    1
    25    52    50   ar
    26    52    54   ar
    27   150   153    1
    28    48    47    2
    29    50    51   ar
    30    46    47    1
    31    54    55   ar
    32   158   157    1
    33   158   161    1
    34    47    56   am
    35    71    69    1
    36   156   154    1
    37    51    53   ar
    38   153   154    1
    39    55    53   ar
    40   134   135    2
    41   134   133    1
    42   154   155    1
    43    68    69    1
    44    68    65    1
    45    56    57    1
    46    69    70    1
    47    57    58    1
    48    57    60    1
    49    64    65    1
    50    64    58   am
    51   133   132    1
    52   133   136    1
    53    65    66    1
    54    58    59    2
    55    40    39    2
    56   132   126   am
    57   130   129    2
    58    62    61    2
    59    60    61    1
    60    43    42    2
    61   136   137    1
    62    61    63   am
    63   126   125    1
    64   126   127    2
    65    66    67    2
    66    39    38    1
    67   129   131   am
    68   129   128    1
    69   125   128    1
    70   125   124    1
    71    41    42    1
    72    41    38    1
    73    42    44   am
    74   137   138    1
    75    38    37    1
    76   138   139    1
    77    37    33   am
    78    34    33    2
    79   139   140    1
    80    72    73    1
    81    21    20    2
    82    33    32    1
    83    77    76    1
    84    76    73    1
    85    14    13    2
    86    19    20    1
    87    19    18    1
    88    73    74    1
    89    20    22   am
    90    25    24    2
    91    32    31    1
    92    32    35    1
    93    24    31   am
    94    24    23    1
    95    13    18   am
    96    13    12    1
    97    22    23    1
    98    74    75    2
    99    74    78   am
   100    35    36    1
   101    23    26    1
   102    86    85    1
   103    10     9    2
   104    12    15    1
   105    12    11    1
   106    78    79    1
   107    15    17    1
   108    15    16    1
   109    26    27    1
   110     9    11   am
   111     9     8    1
   112    85    84    1
   113    27    28    1
   114    79    82    1
   115    79    80    1
   116    83    84    1
   117    83    82    1
   118     8     7    1
   119    81    80    2
   120    80    87   am
   121    28    29    1
   122    98    97    1
   123     7     3   am
   124    87    88    1
   125    30    29    1
   126     3     4    2
   127     3     2    1
   128    88    89    1
   129    88    91    1
   130    97    99    1
   131    97    94    1
   132    93    89   am
   133    93    94    1
   134    89    90    2
   135    94    95    1
   136   100   101    1
   137     2     1    1
   138     2     5    1
   139   103   102    2
   140    91    92    1
   141     6     5    1
   142   101   102    1
   143   101   104    1
   144   102   107   am
   145    95    96    2
   146   107   108    1
   147   108   109    1
   148   108   111    1
   149   112   109   am
   150   112   113    1
   151   104   106    1
   152   104   105    1
   153   109   110    2
   154   113   114    1
   155   123   121    1
   156   114   115    2
   157   114   116   am
   158   122   121    1
   159   116   117    1
   160   121   120    1
   161   117   120    1
   162   117   118    1
   163   118   119    2
