@<TRIPOS>MOLECULE
tmp/2d7dB01.pdb
 141 136 0 0 0
SMALL
GASTEIGER

@<TRIPOS>ATOM
      1  N         -7.5690    2.1440   -4.1960 N.3     9  TYR9       -0.1227
      2  CA        -6.8980    0.9370   -4.7410 C.3     9  TYR9        0.1736
      3  C         -7.6200    0.2460   -5.8910 C.2     9  TYR9        0.2595
      4  O         -8.8210    0.3570   -6.0230 O.2     9  TYR9       -0.2718
      5  CB        -6.7840   -0.1310   -3.6620 C.3     9  TYR9        0.0548
      6  CG        -6.1860    0.2570   -2.3320 C.ar    9  TYR9       -0.0200
      7  CD1       -6.5230   -0.4550   -1.1820 C.ar    9  TYR9       -0.0009
      8  CD2       -5.2660    1.3010   -2.2190 C.ar    9  TYR9       -0.0009
      9  CE1       -5.9780   -0.1370    0.0460 C.ar    9  TYR9        0.0417
     10  CE2       -4.7060    1.6290   -0.9850 C.ar    9  TYR9        0.0417
     11  CZ        -5.0610    0.9020    0.1420 C.ar    9  TYR9        0.1957
     12  OH        -4.4960    1.2220    1.3630 O.3     9  TYR9       -0.2866
     13  N         -6.8810   -0.5070   -6.6940 N.am   10  GLN10      -0.1979
     14  CA        -7.4700   -1.5240   -7.5710 C.3    10  GLN10       0.1601
     15  C         -6.8710   -2.8650   -7.1710 C.2    10  GLN10       0.2287
     16  O         -5.7520   -2.8870   -6.6920 O.2    10  GLN10      -0.2864
     17  CB        -7.1720   -1.2450   -9.0440 C.3    10  GLN10       0.0394
     18  CG        -5.7160   -0.9990   -9.3720 C.3    10  GLN10       0.0908
     19  CD        -5.4970   -0.5030  -10.8070 C.2    10  GLN10       0.2608
     20  OE1       -6.4530   -0.2630  -11.5500 O.2    10  GLN10      -0.2717
     21  NE2       -4.2240   -0.3440  -11.1960 N.am   10  GLN10      -0.0878
     22  N         -4.6060   -5.8680   -7.0240 N.3    12  GLN12      -0.1245
     23  CA        -3.2430   -6.0380   -7.5400 C.3    12  GLN12       0.1566
     24  C         -2.7260   -7.4230   -7.1580 C.2    12  GLN12       0.2260
     25  O         -3.2730   -8.0770   -6.2780 O.2    12  GLN12      -0.2867
     26  CB        -2.2880   -4.9980   -6.9440 C.3    12  GLN12       0.0367
     27  CG        -2.8020   -3.5420   -6.8600 C.3    12  GLN12       0.0905
     28  CD        -2.6060   -2.7100   -8.1330 C.2    12  GLN12       0.2608
     29  OE1       -2.6930   -1.4700   -8.0910 O.2    12  GLN12      -0.2717
     30  NE2       -2.3560   -3.3750   -9.2620 N.am   12  GLN12      -0.0878
     31  N         -4.6310  -10.8020   -5.8390 N.3    15  GLN15      -0.1245
     32  CA        -5.9360  -10.4390   -5.2690 C.3    15  GLN15       0.1566
     33  C         -7.0870  -10.7430   -6.2180 C.2    15  GLN15       0.2260
     34  O         -8.1110  -11.2600   -5.7610 O.2    15  GLN15      -0.2867
     35  CB        -6.0170   -8.9700   -4.8400 C.3    15  GLN15       0.0367
     36  CG        -5.1010   -8.5610   -3.6710 C.3    15  GLN15       0.0905
     37  CD        -5.2690   -7.0990   -3.3030 C.2    15  GLN15       0.2608
     38  OE1       -5.6430   -6.2760   -4.1480 O.2    15  GLN15      -0.2717
     39  NE2       -4.9960   -6.7600   -2.0450 N.am   15  GLN15      -0.0878
     40  N          0.8020  -12.5660    5.3800 N.3    39  THR39      -0.1203
     41  CA         0.7070  -11.2350    5.9740 C.3    39  THR39       0.1994
     42  C          1.1560  -10.1350    5.0210 C.2    39  THR39       0.2618
     43  O          2.2150  -10.2430    4.3830 O.2    39  THR39      -0.2717
     44  CB         1.4850  -11.1270    7.3060 C.3    39  THR39       0.1784
     45  OG1        1.2000   -9.8550    7.9140 O.3    39  THR39      -0.2211
     46  CG2        2.9780  -11.2230    7.0770 C.3    39  THR39       0.0376
     47  N          0.3380   -9.0940    4.9270 N.am   40  GLY40      -0.1942
     48  CA         0.6740   -7.8970    4.1850 C.3    40  GLY40       0.2014
     49  C          0.2580   -7.9470    2.7370 C.2    40  GLY40       0.2640
     50  O          0.7110   -7.1430    1.9540 O.2    40  GLY40      -0.2714
     51  N         -0.5960   -8.9120    2.3890 N.am   41  THR41      -0.1936
     52  CA        -1.1190   -9.0670    1.0370 C.3    41  THR41       0.2028
     53  C         -2.3900   -8.2450    0.7950 C.2    41  THR41       0.2643
     54  O         -2.9120   -8.2100   -0.3040 O.2    41  THR41      -0.2714
     55  CB        -1.2870  -10.5900    0.5970 C.3    41  THR41       0.1808
     56  OG1       -2.2440  -11.2790    1.4110 O.3    41  THR41      -0.2208
     57  CG2        0.0320  -11.3380    0.6500 C.3    41  THR41       0.0379
     58  N         -2.8640   -7.5470    1.8200 N.am   42  GLY42      -0.1939
     59  CA        -4.1280   -6.8240    1.7420 C.3    42  GLY42       0.2014
     60  C         -5.3270   -7.7390    1.8430 C.2    42  GLY42       0.2639
     61  O         -6.2610   -7.6370    1.0330 O.2    42  GLY42      -0.2714
     62  N         -5.3330   -8.6340    2.8260 N.am   43  LYS43      -0.1963
     63  CA        -6.4930   -9.5410    2.9800 C.3    43  LYS43       0.1728
     64  C         -7.7730   -8.7850    3.2840 C.2    43  LYS43       0.2617
     65  O         -8.8540   -9.2080    2.8530 O.2    43  LYS43      -0.2715
     66  CB        -6.2920  -10.6400    4.0310 C.3    43  LYS43       0.0311
     67  CG        -5.2770  -11.6970    3.6420 C.3    43  LYS43       0.0038
     68  CD        -4.0430  -11.5510    4.4440 C.3    43  LYS43       0.0206
     69  CE        -4.1180  -12.2150    5.8030 C.3    43  LYS43       0.1093
     70  NZ        -2.7380  -12.1080    6.3620 N.3    43  LYS43      -0.1314
     71  N         -7.6720   -7.6770    4.0110 N.am   44  THR44      -0.1937
     72  CA        -8.8740   -6.8980    4.2600 C.3    44  THR44       0.2028
     73  C         -9.4650   -6.2240    3.0050 C.2    44  THR44       0.2642
     74  O        -10.6810   -6.2090    2.8400 O.2    44  THR44      -0.2714
     75  CB        -8.7940   -6.0120    5.5380 C.3    44  THR44       0.1808
     76  OG1       -8.0500   -4.8170    5.3090 O.3    44  THR44      -0.2208
     77  CG2       -8.1460   -6.7860    6.6620 C.3    44  THR44       0.0379
     78  N         -8.6230   -5.7310    2.0890 N.am   45  PHE45      -0.1973
     79  CA        -9.1120   -5.3210    0.7490 C.3    45  PHE45       0.1639
     80  C         -9.7230   -6.4950   -0.0260 C.2    45  PHE45       0.2290
     81  O        -10.7910   -6.3480   -0.6620 O.2    45  PHE45      -0.2864
     82  CB        -8.0180   -4.6380   -0.0990 C.3    45  PHE45       0.0560
     83  CG        -8.5480   -3.9890   -1.3640 C.ar   45  PHE45      -0.0200
     84  CD1       -9.6550   -3.1150   -1.3120 C.ar   45  PHE45      -0.0042
     85  CD2       -7.9550   -4.2560   -2.6030 C.ar   45  PHE45      -0.0042
     86  CE1      -10.1610   -2.5190   -2.4760 C.ar   45  PHE45      -0.0003
     87  CE2       -8.4560   -3.6620   -3.7740 C.ar   45  PHE45      -0.0003
     88  CZ        -9.5640   -2.7880   -3.7000 C.ar   45  PHE45      -0.0000
     89  N        -11.7210    0.9080    8.8570 N.3    74  GLU74      -0.1245
     90  CA       -11.3110    0.6530    7.4650 C.3    74  GLU74       0.1567
     91  C        -12.5070    0.3310    6.5730 C.2    74  GLU74       0.2260
     92  O        -12.5660    0.7320    5.4160 O.2    74  GLU74      -0.2867
     93  CB       -10.3820   -0.5380    7.4510 C.3    74  GLU74       0.0388
     94  CG        -9.1270   -0.3900    6.6560 C.3    74  GLU74       0.1160
     95  CD        -8.3310   -1.6780    6.6570 C.2    74  GLU74       0.3649
     96  OE1       -7.9920   -2.1770    7.7740 O.co2  74  GLU74      -0.2457
     97  OE2       -8.0590   -2.1860    5.5390 O.co2  74  GLU74      -0.2457
     98  N        -14.1970    2.0620    3.3100 N.3    78  PHE78      -0.1241
     99  CA       -14.5210    1.2260    2.1440 C.3    78  PHE78       0.1605
    100  C        -15.9770    1.3810    1.7110 C.2    78  PHE78       0.2264
    101  O        -16.2540    1.4110    0.5320 O.2    78  PHE78      -0.2867
    102  CB       -14.2340   -0.2680    2.4040 C.3    78  PHE78       0.0534
    103  CG       -12.7600   -0.6780    2.2910 C.ar   78  PHE78      -0.0203
    104  CD1      -11.9010   -0.0970    1.3450 C.ar   78  PHE78      -0.0042
    105  CD2      -12.2520   -1.7000    3.1000 C.ar   78  PHE78      -0.0042
    106  CE1      -10.5550   -0.5040    1.2370 C.ar   78  PHE78      -0.0003
    107  CE2      -10.9130   -2.1220    2.9860 C.ar   78  PHE78      -0.0003
    108  CZ       -10.0610   -1.5080    2.0590 C.ar   78  PHE78      -0.0000
    109  N          1.1260   -5.7200   -2.5420 N.3   412  PRO412     -0.2102
    110  CA         0.8880   -4.6010   -3.4490 C.3   412  PRO412      0.1504
    111  C          2.1670   -4.0000   -4.0390 C.2   412  PRO412      0.2576
    112  O          2.2400   -3.7790   -5.2510 O.2   412  PRO412     -0.2718
    113  CB         0.1510   -3.5760   -2.5680 C.3   412  PRO412      0.0282
    114  CG        -0.5480   -4.4090   -1.5260 C.3   412  PRO412      0.0208
    115  CD         0.2710   -5.6500   -1.3350 C.3   412  PRO412      0.0893
    116  N          3.1620   -3.7340   -3.1950 N.am  413  THR413     -0.1953
    117  CA         4.3690   -3.0940   -3.6440 C.3   413  THR413      0.1897
    118  C          5.4850   -4.1300   -3.8090 C.2   413  THR413      0.2313
    119  O          6.6750   -3.7930   -3.7700 O.2   413  THR413     -0.2863
    120  CB         4.7960   -1.9120   -2.7100 C.3   413  THR413      0.1794
    121  OG1        4.9700   -2.3860   -1.3740 O.3   413  THR413     -0.2208
    122  CG2        3.7470   -0.7520   -2.7320 C.3   413  THR413      0.0378
    123  N          7.5030   -6.7160    6.1970 N.3   541  ARG541     -0.1245
    124  CA         6.9640   -5.3780    5.9830 C.3   541  ARG541      0.1563
    125  C          8.0820   -4.4430    5.5060 C.2   541  ARG541      0.2260
    126  O          7.8770   -3.2410    5.3440 O.2   541  ARG541     -0.2867
    127  CB         6.3370   -4.7930    7.2670 C.3   541  ARG541      0.0307
    128  CG         5.2130   -5.5680    7.9170 C.3   541  ARG541      0.0489
    129  CD         3.8710   -5.0880    7.3910 C.3   541  ARG541      0.2205
    130  NE         2.7650   -6.0240    7.6540 N.pl3 541  ARG541     -0.0865
    131  CZ         1.5090   -5.8270    7.2440 C.cat 541  ARG541      0.5346
    132  NH1        1.2070   -4.7490    6.5450 N.pl3 541  ARG541      0.1354
    133  NH2        0.5600   -6.7150    7.5070 N.pl3 541  ARG541      0.1354
    134  N          6.3470   -0.1570    2.5040 N.3   586  ILE586     -0.1245
    135  CA         5.2220    0.7700    2.7160 C.3   586  ILE586      0.1561
    136  C          5.3560    1.4870    4.0830 C.2   586  ILE586      0.2260
    137  O          5.5400    0.8370    5.1180 O.2   586  ILE586     -0.2867
    138  CB         3.8360    0.0450    2.5930 C.3   586  ILE586      0.0252
    139  CG1        3.6520   -0.5270    1.1770 C.3   586  ILE586      0.0019
    140  CG2        2.6690    0.9820    3.0300 C.3   586  ILE586      0.0019
    141  CD1        2.3380   -1.3090    0.9210 C.3   586  ILE586      0.0001
@<TRIPOS>BOND
     1    20    19    2
     2    21    19   am
     3    19    18    1
     4    18    17    1
     5    30    28   am
     6    17    14    1
     7    28    29    2
     8    28    27    1
     9    14    15    1
    10    14    13    1
    11    23    24    1
    12    23    22    1
    13    23    26    1
    14    15    16    2
    15    24    25    2
    16    26    27    1
    17    13     3   am
    18    33    34    2
    19    33    32    1
    20     4     3    2
    21     3     2    1
    22    31    32    1
    23    32    35    1
    24   112   111    2
    25    35    36    1
    26     2     1    1
    27     2     5    1
    28    38    37    2
    29   111   110    1
    30   111   116   am
    31   118   119    2
    32   118   117    1
    33    87    88   ar
    34    87    85   ar
    35    88    86   ar
    36    36    37    1
    37     5     6    1
    38   117   116    1
    39   117   120    1
    40   110   113    1
    41   110   109    1
    42    37    39   am
    43   122   120    1
    44   120   121    1
    45    85    83   ar
    46   113   114    1
    47   109   115    1
    48    86    84   ar
    49     6     8   ar
    50     6     7   ar
    51     8    10   ar
    52   114   115    1
    53    83    84   ar
    54    83    82    1
    55     7     9   ar
    56    10    11   ar
    57    81    80    2
    58    54    53    2
    59    82    79    1
    60    80    79    1
    61     9    11   ar
    62    11    12    1
    63   101   100    2
    64    55    57    1
    65    55    52    1
    66    55    56    1
    67    79    78    1
    68    53    52    1
    69    53    58   am
    70   141   139    1
    71    61    60    2
    72    52    51    1
    73   139   138    1
    74   106   104   ar
    75   106   108   ar
    76   104   103   ar
    77   100    99    1
    78    59    58    1
    79    59    60    1
    80    60    62   am
    81    50    49    2
    82   108   107   ar
    83    78    73   am
    84    99   102    1
    85    99    98    1
    86   103   102    1
    87   103   105   ar
    88    51    49   am
    89   134   135    1
    90   138   135    1
    91   138   140    1
    92   135   136    1
    93    49    48    1
    94    62    63    1
    95    74    73    2
    96    65    64    2
    97    63    64    1
    98    63    66    1
    99   107   105   ar
   100    73    72    1
   101    64    71   am
   102    67    66    1
   103    67    68    1
   104    71    72    1
   105   136   137    2
   106    48    47    1
   107    72    75    1
   108    43    42    2
   109    68    69    1
   110    47    42   am
   111    42    41    1
   112    76    75    1
   113   126   125    2
   114    40    41    1
   115    92    91    2
   116   125   124    1
   117    75    77    1
   118    97    95   ar
   119    69    70    1
   120    41    44    1
   121   124   123    1
   122   124   127    1
   123   132   131    1
   124    91    90    1
   125    94    95    1
   126    94    93    1
   127    95    96   ar
   128    46    44    1
   129   131   133    1
   130   131   130    2
   131   127   128    1
   132    44    45    1
   133   129   130    1
   134   129   128    1
   135    93    90    1
   136    90    89    1
