@<TRIPOS>MOLECULE
tmp/2d7dB00.pdb
 193 184 0 0 0
SMALL
GASTEIGER

@<TRIPOS>ATOM
      1  N        -10.7730  -11.2450   16.9000 N.3    63  HIS63      -0.1226
      2  CA       -10.4540  -11.8640   18.2100 C.3    63  HIS63       0.1752
      3  C        -10.0580  -10.9010   19.3440 C.2    63  HIS63       0.2596
      4  O         -9.8950  -11.3000   20.4870 O.2    63  HIS63      -0.2718
      5  CB        -9.4550  -13.0070   18.0550 C.3    63  HIS63       0.0759
      6  CG        -8.0690  -12.5820   17.6410 C.ar   63  HIS63       0.0818
      7  ND1       -7.1140  -12.1690   18.5520 N.ar   63  HIS63      -0.2268
      8  CD2       -7.4570  -12.5780   16.4280 C.ar   63  HIS63       0.1154
      9  CE1       -5.9770  -11.9140   17.9150 C.ar   63  HIS63       0.1986
     10  NE2       -6.1550  -12.1650   16.6270 N.ar   63  HIS63      -0.2212
     11  N         -9.9060   -9.6210   19.0250 N.am   64  ASN64      -0.1960
     12  CA        -9.6790   -8.6270   20.0680 C.3    64  ASN64       0.1819
     13  C        -10.2480   -7.3220   19.5590 C.2    64  ASN64       0.2621
     14  O        -10.4210   -7.1530   18.3510 O.2    64  ASN64      -0.2715
     15  CB        -8.1850   -8.5020   20.4140 C.3    64  ASN64       0.1195
     16  CG        -7.4150   -7.8420   19.3470 C.2    64  ASN64       0.2630
     17  OD1       -7.4660   -6.6280   19.2010 O.2    64  ASN64      -0.2716
     18  ND2       -6.6840   -8.6190   18.5880 N.am   64  ASN64      -0.0877
     19  N        -10.5810   -6.4240   20.4750 N.am   65  LYS65      -0.1963
     20  CA       -11.3920   -5.2460   20.1460 C.3    65  LYS65       0.1728
     21  C        -10.5780   -4.1380   19.5260 C.2    65  LYS65       0.2616
     22  O        -11.1180   -3.2550   18.8850 O.2    65  LYS65      -0.2715
     23  CB       -12.0950   -4.7370   21.3950 C.3    65  LYS65       0.0311
     24  CG       -13.2100   -5.6360   21.8440 C.3    65  LYS65       0.0038
     25  CD       -13.8720   -5.1310   23.1390 C.3    65  LYS65       0.0206
     26  CE       -13.0620   -5.4380   24.3520 C.3    65  LYS65       0.1093
     27  NZ       -13.8990   -5.2420   25.5910 N.3    65  LYS65      -0.1314
     28  N         -9.2780   -4.1630   19.7680 N.am   66  THR66      -0.1951
     29  CA        -8.3280   -3.3340   19.0390 C.3    66  THR66       0.1897
     30  C         -8.3880   -3.6230   17.5280 C.2    66  THR66       0.2313
     31  O         -8.4860   -2.6990   16.7120 O.2    66  THR66      -0.2863
     32  CB        -6.9110   -3.5610   19.5800 C.3    66  THR66       0.1794
     33  OG1       -6.8450   -3.1440   20.9550 O.3    66  THR66      -0.2208
     34  CG2       -5.8630   -2.8260   18.7690 C.3    66  THR66       0.0378
     35  N        -18.6950   -5.9440   23.3670 N.3    89  SER89      -0.1217
     36  CA       -19.2170   -5.8170   24.7240 C.3    89  SER89       0.1889
     37  C        -19.2330   -4.3340   25.0990 C.2    89  SER89       0.2288
     38  O        -18.2540   -3.6370   24.8850 O.2    89  SER89      -0.2866
     39  CB       -18.3390   -6.5640   25.7270 C.3    89  SER89       0.2089
     40  OG       -18.8100   -6.3990   27.0560 O.3    89  SER89      -0.2183
     41  N        -18.9570   -3.1390   27.9880 N.3    91  TYR91      -0.1241
     42  CA       -18.2320   -2.9480   29.2510 C.3    91  TYR91       0.1605
     43  C        -16.8940   -2.2950   29.0340 C.2    91  TYR91       0.2264
     44  O        -16.0670   -2.8150   28.2810 O.2    91  TYR91      -0.2867
     45  CB       -18.0550   -4.2640   30.0040 C.3    91  TYR91       0.0534
     46  CG       -19.3560   -4.8540   30.4950 C.ar   91  TYR91      -0.0201
     47  CD1      -19.7800   -6.1080   30.0600 C.ar   91  TYR91      -0.0009
     48  CD2      -20.1640   -4.1490   31.3780 C.ar   91  TYR91      -0.0009
     49  CE1      -20.9800   -6.6550   30.5030 C.ar   91  TYR91       0.0417
     50  CE2      -21.3520   -4.6700   31.8230 C.ar   91  TYR91       0.0417
     51  CZ       -21.7620   -5.9280   31.3860 C.ar   91  TYR91       0.1957
     52  OH       -22.9490   -6.4420   31.8390 O.3    91  TYR91      -0.2866
     53  N        -14.6520   -5.2270   32.7700 N.3    94  TYR94      -0.1241
     54  CA       -15.5510   -6.2920   33.2170 C.3    94  TYR94       0.1605
     55  C        -14.8210   -7.2470   34.1520 C.2    94  TYR94       0.2264
     56  O        -13.8380   -7.8870   33.7640 O.2    94  TYR94      -0.2867
     57  CB       -16.1310   -7.0280   31.9970 C.3    94  TYR94       0.0534
     58  CG       -17.0190   -8.2210   32.2930 C.ar   94  TYR94      -0.0201
     59  CD1      -18.1710   -8.0930   33.0910 C.ar   94  TYR94      -0.0009
     60  CD2      -16.7150   -9.4790   31.7530 C.ar   94  TYR94      -0.0009
     61  CE1      -18.9940   -9.2010   33.3610 C.ar   94  TYR94       0.0417
     62  CE2      -17.5200  -10.5940   32.0080 C.ar   94  TYR94       0.0417
     63  CZ       -18.6580  -10.4540   32.8140 C.ar   94  TYR94       0.1957
     64  OH       -19.4550  -11.5610   33.0560 O.3    94  TYR94      -0.2866
     65  N        -16.1810  -10.4490   35.9740 N.3    96  PRO96      -0.2116
     66  CA       -17.3790  -11.2650   36.1480 C.3    96  PRO96       0.1372
     67  C        -17.5220  -11.7250   37.5940 C.2    96  PRO96       0.2244
     68  O        -16.5190  -11.8060   38.3240 O.2    96  PRO96      -0.2868
     69  CB       -17.1270  -12.4730   35.2260 C.3    96  PRO96       0.0268
     70  CG       -15.6610  -12.6100   35.1510 C.3    96  PRO96       0.0207
     71  CD       -15.1040  -11.1880   35.2770 C.3    96  PRO96       0.0892
     72  N        -16.7690   -8.6020   18.0470 N.3   139  SER139     -0.1202
     73  CA       -16.0590   -9.5950   18.8130 C.3   139  SER139      0.2020
     74  C        -16.9560  -10.8250   19.0230 C.2   139  SER139      0.2619
     75  O        -18.1020  -10.8450   18.5530 O.2   139  SER139     -0.2717
     76  CB       -15.6810   -8.9960   20.1760 C.3   139  SER139      0.2103
     77  OG       -16.8590   -8.6250   20.8870 O.3   139  SER139     -0.2182
     78  N        -16.4770  -11.7990   19.8080 N.am  140  VAL140     -0.1965
     79  CA       -17.2950  -12.9590   20.1980 C.3   140  VAL140      0.1727
     80  C        -18.5340  -12.5210   20.9990 C.2   140  VAL140      0.2616
     81  O        -19.3050  -13.3610   21.3970 O.2   140  VAL140     -0.2715
     82  CB       -16.5130  -13.9650   21.1020 C.3   140  VAL140      0.0290
     83  CG1      -15.4100  -14.6370   20.3470 C.3   140  VAL140      0.0023
     84  CG2      -16.0010  -13.2080   22.3670 C.3   140  VAL140      0.0023
     85  N        -18.6810  -11.2240   21.2850 N.am  141  SER141     -0.1950
     86  CA       -19.9290  -10.6570   21.8010 C.3   141  SER141      0.1924
     87  C        -21.0970  -11.0430   20.8910 C.2   141  SER141      0.2314
     88  O        -22.2510  -11.1040   21.3290 O.2   141  SER141     -0.2863
     89  CB       -19.8150   -9.1230   21.9440 C.3   141  SER141      0.2116
     90  OG       -20.9170   -8.5840   22.7110 O.3   141  SER141     -0.2180
     91  N        -23.1580  -13.9390   22.2170 N.3   144  TYR144     -0.1241
     92  CA       -23.7200  -13.7860   23.5600 C.3   144  TYR144      0.1605
     93  C        -25.1690  -13.3630   23.5250 C.2   144  TYR144      0.2264
     94  O        -25.6930  -13.0370   22.4610 O.2   144  TYR144     -0.2867
     95  CB       -22.8970  -12.8320   24.4030 C.3   144  TYR144      0.0534
     96  CG       -21.7410  -13.5080   25.1050 C.ar  144  TYR144     -0.0201
     97  CD1      -20.5450  -13.7720   24.4410 C.ar  144  TYR144     -0.0009
     98  CD2      -21.8560  -13.8790   26.4510 C.ar  144  TYR144     -0.0009
     99  CE1      -19.4820  -14.3880   25.0990 C.ar  144  TYR144      0.0417
    100  CE2      -20.8210  -14.4790   27.1130 C.ar  144  TYR144      0.0417
    101  CZ       -19.6380  -14.7460   26.4430 C.ar  144  TYR144      0.1957
    102  OH       -18.6170  -15.3440   27.1550 O.3   144  TYR144     -0.2866
    103  N        -11.1110  -19.3080   20.2680 N.3   344  GLN344     -0.1245
    104  CA       -11.7440  -18.3650   21.1850 C.3   344  GLN344      0.1566
    105  C        -13.2390  -18.5690   21.1850 C.2   344  GLN344      0.2260
    106  O        -13.8240  -18.6470   22.2540 O.2   344  GLN344     -0.2867
    107  CB       -11.3660  -16.8990   20.8520 C.3   344  GLN344      0.0367
    108  CG       -11.9230  -15.8310   21.8210 C.3   344  GLN344      0.0905
    109  CD       -11.7140  -14.4150   21.2950 C.2   344  GLN344      0.2608
    110  OE1      -12.3090  -14.0270   20.3000 O.2   344  GLN344     -0.2717
    111  NE2      -10.8520  -13.6580   21.9410 N.am  344  GLN344     -0.0878
    112  N        -15.4710  -19.7870   24.7440 N.3   348  MET348     -0.1245
    113  CA       -16.3410  -18.9140   25.5500 C.3   348  MET348      0.1570
    114  C        -17.3540  -19.6740   26.4240 C.2   348  MET348      0.2261
    115  O        -17.5690  -19.3140   27.5770 O.2   348  MET348     -0.2867
    116  CB       -17.1070  -17.8970   24.6830 C.3   348  MET348      0.0387
    117  CG       -16.2720  -16.9810   23.8010 C.3   348  MET348      0.0595
    118  SD       -14.8610  -16.3120   24.6560 S.3   348  MET348     -0.1393
    119  CE       -15.6190  -15.0850   25.7300 C.3   348  MET348      0.0692
    120  N        -17.3070  -19.7940   30.5080 N.3   352  ASP352     -0.1239
    121  CA       -18.5680  -19.3720   31.1390 C.3   352  ASP352      0.1674
    122  C        -19.1390  -20.4610   32.0570 C.2   352  ASP352      0.2266
    123  O        -19.4370  -20.2040   33.2160 O.2   352  ASP352     -0.2867
    124  CB       -19.6020  -19.0020   30.0560 C.3   352  ASP352      0.1410
    125  CG       -20.9300  -18.4820   30.6330 C.2   352  ASP352      0.3668
    126  OD1      -21.8390  -19.3140   30.8410 O.co2 352  ASP352     -0.2456
    127  OD2      -21.0870  -17.2420   30.8110 O.co2 352  ASP352     -0.2456
    128  N        -17.0160  -21.2460   35.3470 N.3   355  ARG355     -0.1245
    129  CA       -17.1520  -20.1330   36.2830 C.3   355  ARG355      0.1563
    130  C        -18.5170  -20.1700   36.9970 C.2   355  ARG355      0.2260
    131  O        -18.5910  -19.9960   38.2160 O.2   355  ARG355     -0.2867
    132  CB       -17.0170  -18.8200   35.4970 C.3   355  ARG355      0.0307
    133  CG       -16.5240  -17.6060   36.2750 C.3   355  ARG355      0.0489
    134  CD       -16.6130  -16.3290   35.4150 C.3   355  ARG355      0.2205
    135  NE       -17.8790  -15.6410   35.6560 N.pl3 355  ARG355     -0.0865
    136  CZ       -18.9450  -15.6480   34.8460 C.cat 355  ARG355      0.5346
    137  NH1      -18.9200  -16.3030   33.6890 N.pl3 355  ARG355      0.1354
    138  NH2      -20.0430  -14.9760   35.1970 N.pl3 355  ARG355      0.1354
    139  N          1.9240   -6.9960   30.0450 N.3   477  ILE477     -0.1231
    140  CA         1.6850   -5.6980   29.4200 C.3   477  ILE477      0.1692
    141  C          0.3990   -5.7860   28.5760 C.2   477  ILE477      0.2592
    142  O          0.2530   -6.6700   27.7370 O.2   477  ILE477     -0.2718
    143  CB         2.9120   -5.1660   28.6190 C.3   477  ILE477      0.0266
    144  CG1        4.0090   -4.6790   29.5740 C.3   477  ILE477      0.0019
    145  CG2        2.5180   -4.0130   27.7240 C.3   477  ILE477      0.0020
    146  CD1        5.3390   -4.3640   28.9090 C.3   477  ILE477      0.0001
    147  N         -0.5480   -4.8970   28.8590 N.am  478  LYS478     -0.1966
    148  CA        -1.7990   -4.8480   28.1280 C.3   478  LYS478      0.1728
    149  C         -1.5560   -4.2220   26.7390 C.2   478  LYS478      0.2616
    150  O         -0.5460   -3.5210   26.5420 O.2   478  LYS478     -0.2715
    151  CB        -2.8240   -4.0500   28.9270 C.3   478  LYS478      0.0311
    152  CG        -2.4150   -2.6120   29.2280 C.3   478  LYS478      0.0038
    153  CD        -3.3560   -2.0050   30.2230 C.3   478  LYS478      0.0206
    154  CE        -3.1100   -0.5110   30.3350 C.3   478  LYS478      0.1093
    155  NZ        -4.0080    0.1650   31.3050 N.3   478  LYS478     -0.1314
    156  N         -2.4670   -4.4870   25.7900 N.am  479  THR479     -0.1951
    157  CA        -2.3340   -4.0270   24.3990 C.3   479  THR479      0.1897
    158  C         -2.2870   -2.5000   24.2780 C.2   479  THR479      0.2313
    159  O         -1.6460   -1.9810   23.3850 O.2   479  THR479     -0.2863
    160  CB        -3.4170   -4.6580   23.4290 C.3   479  THR479      0.1794
    161  OG1       -3.3670   -6.0950   23.4920 O.3   479  THR479     -0.2208
    162  CG2       -3.1960   -4.2070   21.9490 C.3   479  THR479      0.0378
    163  N          1.2360   -1.8570   25.2330 N.3   482  ARG482     -0.1245
    164  CA         1.9280   -2.4530   24.0900 C.3   482  ARG482      0.1563
    165  C          1.9930   -1.5010   22.9030 C.2   482  ARG482      0.2260
    166  O          3.0480   -1.2660   22.3720 O.2   482  ARG482     -0.2867
    167  CB         1.2580   -3.7640   23.6710 C.3   482  ARG482      0.0307
    168  CG         2.1840   -4.8330   23.1570 C.3   482  ARG482      0.0489
    169  CD         1.4330   -6.1360   22.7890 C.3   482  ARG482      0.2205
    170  NE         0.8830   -6.8770   23.9300 N.pl3 482  ARG482     -0.0865
    171  CZ         1.6140   -7.5380   24.8240 C.cat 482  ARG482      0.5346
    172  NH1        2.9380   -7.5490   24.7360 N.pl3 482  ARG482      0.1354
    173  NH2        1.0240   -8.2400   25.7800 N.pl3 482  ARG482      0.1354
    174  N          1.5640  -10.9950   19.5430 N.3   504  ARG504     -0.1231
    175  CA         0.6210  -10.1560   20.2560 C.3   504  ARG504      0.1694
    176  C          0.2560   -8.9410   19.3660 C.2   504  ARG504      0.2591
    177  O          1.0870   -8.4460   18.5950 O.2   504  ARG504     -0.2718
    178  CB         1.1900   -9.7510   21.6270 C.3   504  ARG504      0.0321
    179  CG         1.4560  -10.8940   22.6080 C.3   504  ARG504      0.0489
    180  CD         0.2110  -11.5900   23.0280 C.3   504  ARG504      0.2205
    181  NE         0.4160  -12.6320   24.0060 N.pl3 504  ARG504     -0.0865
    182  CZ         0.5620  -12.4120   25.3300 C.cat 504  ARG504      0.5346
    183  NH1        0.3630  -11.2360   25.8470 N.pl3 504  ARG504      0.1354
    184  NH2        0.8370  -13.4560   26.1060 N.pl3 504  ARG504      0.1354
    185  N         -1.0040   -8.5160   19.4620 N.am  505  GLU505     -0.1979
    186  CA        -1.6110   -7.4940   18.6060 C.3   505  GLU505      0.1602
    187  C         -0.7930   -6.2270   18.3480 C.2   505  GLU505      0.2287
    188  O         -0.4400   -5.4910   19.2910 O.2   505  GLU505     -0.2864
    189  CB        -2.9920   -7.1380   19.1710 C.3   505  GLU505      0.0415
    190  CG        -3.7320   -6.0080   18.4630 C.3   505  GLU505      0.1163
    191  CD        -4.1250   -6.3390   17.0320 C.2   505  GLU505      0.3649
    192  OE1       -3.7680   -5.5220   16.1460 O.co2 505  GLU505     -0.2457
    193  OE2       -4.7940   -7.3870   16.7950 O.co2 505  GLU505     -0.2457
@<TRIPOS>BOND
     1   192   191   ar
     2     8    10   ar
     3     8     6   ar
     4    10     9   ar
     5    31    30    2
     6   193   191   ar
     7     1     2    1
     8   191   190    1
     9    30    29    1
    10     6     5    1
    11     6     7   ar
    12     9     7   ar
    13    72    73    1
    14     5     2    1
    15     2     3    1
    16   187   186    1
    17   187   188    2
    18    14    13    2
    19   190   189    1
    20    75    74    2
    21    18    16   am
    22   177   176    2
    23   186   189    1
    24   186   185    1
    25    34    32    1
    26    73    74    1
    27    73    76    1
    28    22    21    2
    29    74    78   am
    30    11     3   am
    31    11    12    1
    32    29    32    1
    33    29    28    1
    34    17    16    2
    35     3     4    2
    36    16    15    1
    37   176   185   am
    38   176   175    1
    39    21    28   am
    40    21    20    1
    41   174   175    1
    42    13    12    1
    43    13    19   am
    44    32    33    1
    45    78    79    1
    46    12    15    1
    47    20    19    1
    48    20    23    1
    49    76    77    1
    50    79    80    1
    51    79    82    1
    52   175   178    1
    53   103   104    1
    54   110   109    2
    55    83    82    1
    56   107   104    1
    57   107   108    1
    58    87    88    2
    59    87    86    1
    60    80    85   am
    61    80    81    2
    62    82    84    1
    63   105   104    1
    64   105   106    2
    65    85    86    1
    66   109   108    1
    67   109   111   am
    68    23    24    1
    69   178   179    1
    70    86    89    1
    71    24    25    1
    72    89    90    1
    73   162   160    1
    74    91    92    1
    75   166   165    2
    76    94    93    2
    77   179   180    1
    78   169   168    1
    79   169   170    1
    80   165   164    1
    81   180   181    1
    82    25    26    1
    83   168   167    1
    84    35    36    1
    85   159   158    2
    86   160   161    1
    87   160   157    1
    88    93    92    1
    89    92    95    1
    90   167   164    1
    91   117   118    1
    92   117   116    1
    93   170   171    2
    94   181   182    2
    95   164   163    1
    96   158   157    1
    97    26    27    1
    98   157   156    1
    99    95    96    1
   100    97    99   ar
   101    97    96   ar
   102   118   119    1
   103   116   113    1
   104    36    37    1
   105    36    39    1
   106   172   171    1
   107   112   113    1
   108   171   173    1
   109    38    37    2
   110    99   101   ar
   111    96    98   ar
   112   182   183    1
   113   182   184    1
   114   113   114    1
   115    39    40    1
   116   156   149   am
   117   114   115    2
   118   101   100   ar
   119   101   102    1
   120    98   100   ar
   121   150   149    2
   122   149   148    1
   123   145   143    1
   124   142   141    2
   125    41    42    1
   126   148   147    1
   127   148   151    1
   128    44    43    2
   129   141   147   am
   130   141   140    1
   131   143   140    1
   132   143   144    1
   133   146   144    1
   134   151   152    1
   135    43    42    1
   136   152   153    1
   137    42    45    1
   138   140   139    1
   139    45    46    1
   140   124   125    1
   141   124   121    1
   142    47    46   ar
   143    47    49   ar
   144   153   154    1
   145   154   155    1
   146    46    48   ar
   147    49    51   ar
   148   120   121    1
   149   125   127   ar
   150   125   126   ar
   151   121   122    1
   152    48    50   ar
   153    51    50   ar
   154    51    52    1
   155    60    62   ar
   156    60    58   ar
   157    57    58    1
   158    57    54    1
   159    62    63   ar
   160   122   123    2
   161    58    59   ar
   162    53    54    1
   163    63    64    1
   164    63    61   ar
   165    59    61   ar
   166    54    55    1
   167   137   136    1
   168    56    55    2
   169   136   138    1
   170   136   135    2
   171    70    69    1
   172    70    71    1
   173    69    66    1
   174    71    65    1
   175   128   129    1
   176   134   135    1
   177   134   133    1
   178   132   133    1
   179   132   129    1
   180    65    66    1
   181    66    67    1
   182   129   130    1
   183   130   131    2
   184    67    68    2
