@<TRIPOS>MOLECULE
tmp/2d7fD02.pdb
 82 82 0 0 0
SMALL
GASTEIGER

@<TRIPOS>ATOM
      1  N         65.8420   30.9420   76.3700 N.3    88  TRP88      -0.1241
      2  CA        64.7820   31.8620   76.6270 C.3    88  TRP88       0.1605
      3  C         65.2900   33.2410   77.0080 C.2    88  TRP88       0.2264
      4  O         66.1950   33.3950   77.7880 O.2    88  TRP88      -0.2867
      5  CB        63.8580   31.3320   77.7430 C.3    88  TRP88       0.0550
      6  CG        63.0810   30.1170   77.3050 C.ar   88  TRP88       0.0003
      7  CD1       63.4940   28.8300   77.3350 C.ar   88  TRP88       0.0946
      8  CD2       61.7570   30.1030   76.7690 C.ar   88  TRP88       0.0152
      9  NE1       62.4830   28.0050   76.9060 N.ar   88  TRP88      -0.2442
     10  CE2       61.4120   28.7620   76.5290 C.ar   88  TRP88       0.0810
     11  CE3       60.8230   31.0800   76.4990 C.ar   88  TRP88       0.0012
     12  CZ2       60.1860   28.3830   76.0350 C.ar   88  TRP88       0.0191
     13  CZ3       59.5540   30.6830   75.9710 C.ar   88  TRP88       0.0001
     14  CH2       59.2740   29.3780   75.7410 C.ar   88  TRP88       0.0015
     15  N         58.8640   36.5160   66.6460 N.3   113  SER113     -0.1202
     16  CA        59.7910   35.4290   66.8000 C.3   113  SER113      0.2020
     17  C         59.1480   34.1530   66.2600 C.2   113  SER113      0.2619
     18  O         57.9880   33.9400   66.4630 O.2   113  SER113     -0.2717
     19  CB        60.0660   35.2110   68.2680 C.3   113  SER113      0.2103
     20  OG        61.3370   34.6000   68.3500 O.3   113  SER113     -0.2182
     21  N         59.9290   33.3150   65.5790 N.am  114  LYS114     -0.1965
     22  CA        59.4870   31.9890   65.1350 C.3   114  LYS114      0.1728
     23  C         60.5540   30.9280   65.4530 C.2   114  LYS114      0.2616
     24  O         61.7430   31.1230   65.2630 O.2   114  LYS114     -0.2715
     25  CB        59.1620   31.8900   63.6450 C.3   114  LYS114      0.0311
     26  CG        58.3190   32.9270   63.0220 C.3   114  LYS114      0.0038
     27  CD        56.9150   32.5130   62.7440 C.3   114  LYS114      0.0206
     28  CE        56.1690   33.4520   61.7520 C.3   114  LYS114      0.1093
     29  NZ        57.1540   34.0730   60.7750 N.3   114  LYS114     -0.1314
     30  N         60.0980   29.7810   65.8710 N.am  115  LEU115     -0.1977
     31  CA        60.9390   28.6450   66.0950 C.3   115  LEU115      0.1596
     32  C         60.3790   27.5300   65.2130 C.2   115  LEU115      0.2287
     33  O         59.3060   27.0680   65.4770 O.2   115  LEU115     -0.2864
     34  CB        60.8470   28.2980   67.5620 C.3   115  LEU115      0.0297
     35  CG        62.0770   27.9600   68.3350 C.3   115  LEU115      0.0022
     36  CD1       63.2020   28.9560   68.0710 C.3   115  LEU115      0.0001
     37  CD2       61.6750   27.8910   69.8580 C.3   115  LEU115      0.0001
     38  N         56.6040   27.2130   66.3380 N.3   124  ASN124     -0.1225
     39  CA        56.1900   28.0490   67.4250 C.3   124  ASN124      0.1785
     40  C         56.3950   29.4860   67.0270 C.2   124  ASN124      0.2597
     41  O         57.3570   29.8150   66.3320 O.2   124  ASN124     -0.2718
     42  CB        56.9300   27.6640   68.6670 C.3   124  ASN124      0.1169
     43  CG        56.4110   26.3460   69.2580 C.2   124  ASN124      0.2627
     44  OD1       55.6890   25.5720   68.6090 O.2   124  ASN124     -0.2716
     45  ND2       56.7680   26.0990   70.4950 N.am  124  ASN124     -0.0877
     46  N         55.4170   30.3290   67.3650 N.am  125  ALA125     -0.1966
     47  CA        55.5610   31.7230   67.1130 C.3   125  ALA125      0.1728
     48  C         55.0600   32.5970   68.2350 C.2   125  ALA125      0.2616
     49  O         54.1220   32.2970   68.8940 O.2   125  ALA125     -0.2715
     50  CB        54.8180   32.0340   65.8470 C.3   125  ALA125      0.0334
     51  N         55.7080   33.7410   68.3820 N.am  126  LEU126     -0.1977
     52  CA        55.2200   34.9150   69.1050 C.3   126  LEU126      0.1596
     53  C         55.2620   36.1740   68.2350 C.2   126  LEU126      0.2287
     54  O         56.2190   36.5200   67.6130 O.2   126  LEU126     -0.2864
     55  CB        56.1460   35.2400   70.2620 C.3   126  LEU126      0.0297
     56  CG        55.7160   36.4750   71.0600 C.3   126  LEU126      0.0022
     57  CD1       54.3680   36.1540   71.7710 C.3   126  LEU126      0.0001
     58  CD2       56.8160   36.8520   72.0500 C.3   126  LEU126      0.0001
     59  N         58.4360   35.6230   78.2890 N.3   178  PRO178     -0.2102
     60  CA        59.6450   35.0350   77.7400 C.3   178  PRO178      0.1504
     61  C         59.4090   34.5580   76.3300 C.2   178  PRO178      0.2576
     62  O         58.2730   34.2600   75.8940 O.2   178  PRO178     -0.2718
     63  CB        59.9520   33.8750   78.6570 C.3   178  PRO178      0.0282
     64  CG        59.1800   34.2150   79.9640 C.3   178  PRO178      0.0208
     65  CD        57.9860   34.9080   79.5010 C.3   178  PRO178      0.0893
     66  N         60.4960   34.6470   75.5970 N.am  179  VAL179     -0.1966
     67  CA        60.5700   34.3590   74.2140 C.3   179  VAL179      0.1727
     68  C         61.5830   33.2360   74.0230 C.2   179  VAL179      0.2616
     69  O         62.7010   33.2620   74.5430 O.2   179  VAL179     -0.2715
     70  CB        61.0070   35.6130   73.4190 C.3   179  VAL179      0.0290
     71  CG1       61.0800   35.2890   71.9060 C.3   179  VAL179      0.0023
     72  CG2       60.1000   36.7830   73.7620 C.3   179  VAL179      0.0023
     73  N         61.1060   32.2010   73.3480 N.am  180  HIS180     -0.1973
     74  CA        61.9320   31.0910   73.0070 C.3   180  HIS180      0.1656
     75  C         62.7680   31.5060   71.7850 C.2   180  HIS180      0.2291
     76  O         62.4280   31.3240   70.6420 O.2   180  HIS180     -0.2864
     77  CB        61.1050   29.8510   72.7670 C.3   180  HIS180      0.0771
     78  CG        61.8350   28.5830   73.0990 C.ar  180  HIS180      0.0820
     79  ND1       61.2560   27.3370   73.0060 N.ar  180  HIS180     -0.2267
     80  CD2       63.1000   28.3810   73.5040 C.ar  180  HIS180      0.1154
     81  CE1       62.1380   26.4260   73.3450 C.ar  180  HIS180      0.1986
     82  NE2       63.2710   27.0330   73.6290 N.ar  180  HIS180     -0.2212
@<TRIPOS>BOND
     1    29    28    1
     2    28    27    1
     3    27    26    1
     4    26    25    1
     5    25    22    1
     6    22    23    1
     7    22    21    1
     8    32    33    2
     9    32    31    1
    10    24    23    2
    11    23    30   am
    12    21    17   am
    13    50    47    1
    14    30    31    1
    15    31    34    1
    16    17    18    2
    17    17    16    1
    18    41    40    2
    19    38    39    1
    20    15    16    1
    21    16    19    1
    22    40    46   am
    23    40    39    1
    24    47    46    1
    25    47    48    1
    26    39    42    1
    27    34    35    1
    28    54    53    2
    29    36    35    1
    30    48    51   am
    31    48    49    2
    32    53    52    1
    33    19    20    1
    34    35    37    1
    35    51    52    1
    36    44    43    2
    37    42    43    1
    38    52    55    1
    39    43    45   am
    40    55    56    1
    41    76    75    2
    42    56    57    1
    43    56    58    1
    44    75    74    1
    45    71    70    1
    46    77    74    1
    47    77    78    1
    48    79    78   ar
    49    79    81   ar
    50    74    73    1
    51    78    80   ar
    52    81    82   ar
    53    73    68   am
    54    70    72    1
    55    70    67    1
    56    80    82   ar
    57    68    67    1
    58    68    69    2
    59    67    66    1
    60    66    61   am
    61    14    13   ar
    62    14    12   ar
    63    62    61    2
    64    13    11   ar
    65    12    10   ar
    66    61    60    1
    67     1     2    1
    68    11     8   ar
    69    10     8   ar
    70    10     9   ar
    71     2     3    1
    72     2     5    1
    73     8     6   ar
    74     9     7   ar
    75     3     4    2
    76     6     7   ar
    77     6     5    1
    78    60    59    1
    79    60    63    1
    80    59    65    1
    81    63    64    1
    82    65    64    1
