@<TRIPOS>MOLECULE
tmp/2d7fD00.pdb
 85 81 0 0 0
SMALL
GASTEIGER

@<TRIPOS>ATOM
      1  N         74.8280   59.7200   70.7740 N.3    12  TYR12      -0.1241
      2  CA        75.8530   60.5110   71.3780 C.3    12  TYR12       0.1605
      3  C         77.1530   59.8380   71.2590 C.2    12  TYR12       0.2264
      4  O         77.3110   58.8210   71.8940 O.2    12  TYR12      -0.2867
      5  CB        75.5530   60.7690   72.8810 C.3    12  TYR12       0.0534
      6  CG        76.5060   61.7740   73.4160 C.ar   12  TYR12      -0.0201
      7  CD1       77.6370   61.3840   74.0640 C.ar   12  TYR12      -0.0009
      8  CD2       76.3180   63.1250   73.1640 C.ar   12  TYR12      -0.0009
      9  CE1       78.5490   62.2900   74.5320 C.ar   12  TYR12       0.0417
     10  CE2       77.2440   64.0720   73.5850 C.ar   12  TYR12       0.0417
     11  CZ        78.3540   63.6420   74.2870 C.ar   12  TYR12       0.1957
     12  OH        79.2710   64.5440   74.7790 O.3    12  TYR12      -0.2866
     13  N         80.4100   58.7610   72.3860 N.3    14  ASN14      -0.1240
     14  CA        81.2940   58.5600   73.5170 C.3    14  ASN14       0.1653
     15  C         82.5100   57.8420   72.9970 C.2    14  ASN14       0.2266
     16  O         82.6260   56.6240   73.1900 O.2    14  ASN14      -0.2867
     17  CB        80.6480   57.6930   74.5910 C.3    14  ASN14       0.1155
     18  CG        79.2750   58.2090   75.0050 C.2    14  ASN14       0.2627
     19  OD1       78.2880   57.8170   74.4140 O.2    14  ASN14      -0.2716
     20  ND2       79.2120   59.1170   75.9930 N.am   14  ASN14      -0.0877
     21  N         71.7760   61.3770   79.7990 N.3    98  GLY98      -0.1210
     22  CA        72.9260   61.5540   80.7110 C.3    98  GLY98       0.1956
     23  C         73.0950   63.0280   80.9580 C.2    98  GLY98       0.2612
     24  O         72.1470   63.6880   81.3210 O.2    98  GLY98      -0.2717
     25  N         74.2770   63.5630   80.6950 N.am   99  LEU99      -0.1965
     26  CA        74.4720   65.0170   80.7880 C.3    99  LEU99       0.1728
     27  C         73.5140   65.6540   79.7810 C.2    99  LEU99       0.2616
     28  O         72.7560   66.5630   80.0900 O.2    99  LEU99      -0.2715
     29  CB        75.9190   65.3500   80.4680 C.3    99  LEU99       0.0311
     30  CG        76.3060   66.8350   80.4230 C.3    99  LEU99       0.0022
     31  CD1       75.8930   67.5600   81.7440 C.3    99  LEU99       0.0001
     32  CD2       77.7890   66.8900   80.1860 C.3    99  LEU99       0.0001
     33  N         73.4650   65.0600   78.5940 N.am  100  TYR100     -0.1974
     34  CA        72.5450   65.4500   77.5510 C.3   100  TYR100      0.1639
     35  C         71.3630   64.5120   77.4510 C.2   100  TYR100      0.2290
     36  O         71.3040   63.4110   78.0160 O.2   100  TYR100     -0.2864
     37  CB        73.2790   65.5590   76.2230 C.3   100  TYR100      0.0560
     38  CG        74.4990   66.4550   76.3280 C.ar  100  TYR100     -0.0198
     39  CD1       74.3670   67.8060   76.6330 C.ar  100  TYR100     -0.0009
     40  CD2       75.7980   65.9390   76.1860 C.ar  100  TYR100     -0.0009
     41  CE1       75.4890   68.6380   76.7770 C.ar  100  TYR100      0.0417
     42  CE2       76.9090   66.7720   76.2940 C.ar  100  TYR100      0.0417
     43  CZ        76.7100   68.1340   76.5890 C.ar  100  TYR100      0.1957
     44  OH        77.7760   68.9780   76.6970 O.3   100  TYR100     -0.2866
     45  N         70.0850   62.2440   82.8230 N.3   168  SER168     -0.1217
     46  CA        70.3370   61.0960   83.6390 C.3   168  SER168      0.1889
     47  C         69.0820   60.2630   83.9180 C.2   168  SER168      0.2288
     48  O         68.7940   59.8650   85.0230 O.2   168  SER168     -0.2866
     49  CB        71.1630   61.4520   84.8750 C.3   168  SER168      0.2089
     50  OG        70.7690   62.7080   85.3090 O.3   168  SER168     -0.2183
     51  N         71.2150   63.1200   73.6730 N.3   207  ALA207     -0.1231
     52  CA        71.8350   61.9290   74.2110 C.3   207  ALA207      0.1694
     53  C         70.7380   61.1470   74.9270 C.2   207  ALA207      0.2592
     54  O         69.7360   61.7320   75.3460 O.2   207  ALA207     -0.2718
     55  CB        73.0310   62.2670   75.1160 C.3   207  ALA207      0.0304
     56  N         70.8530   59.8240   75.0500 N.am  208  ASP208     -0.1974
     57  CA        72.0220   59.0020   74.6120 C.3   208  ASP208      0.1709
     58  C         71.6810   57.9700   73.5530 C.2   208  ASP208      0.2293
     59  O         72.5480   57.5490   72.8460 O.2   208  ASP208     -0.2864
     60  CB        72.6650   58.2910   75.8040 C.3   208  ASP208      0.1436
     61  CG        73.6520   59.1530   76.5030 C.2   208  ASP208      0.3671
     62  OD1       73.2810   59.9290   77.4240 O.co2 208  ASP208     -0.2456
     63  OD2       74.8290   59.1480   76.1510 O.co2 208  ASP208     -0.2456
     64  N         72.6540   54.6920   83.0680 N.3   226  THR226     -0.1203
     65  CA        72.2060   55.8900   82.3500 C.3   226  THR226      0.1994
     66  C         73.3160   56.3080   81.3720 C.2   226  THR226      0.2618
     67  O         74.3530   55.6700   81.2850 O.2   226  THR226     -0.2717
     68  CB        71.9230   57.0600   83.3200 C.3   226  THR226      0.1784
     69  OG1       73.0960   57.2550   84.1000 O.3   226  THR226     -0.2211
     70  CG2       70.8620   56.7090   84.3580 C.3   226  THR226      0.0376
     71  N         73.0730   57.3700   80.6240 N.am  227  GLY227     -0.1942
     72  CA        74.0280   57.8050   79.6580 C.3   227  GLY227      0.2014
     73  C         74.3990   56.7840   78.5990 C.2   227  GLY227      0.2638
     74  O         73.5330   56.0670   78.0850 O.2   227  GLY227     -0.2714
     75  N         75.6970   56.7870   78.2580 N.am  228  ARG228     -0.1977
     76  CA        76.3380   55.9070   77.2410 C.3   228  ARG228      0.1597
     77  C         76.0490   54.4140   77.3860 C.2   228  ARG228      0.2287
     78  O         76.3410   53.6430   76.4950 O.2   228  ARG228     -0.2864
     79  CB        77.8910   56.0430   77.3000 C.3   228  ARG228      0.0334
     80  CG        78.3880   56.1110   78.7120 C.3   228  ARG228      0.0492
     81  CD        79.7090   55.6060   79.0720 C.3   228  ARG228      0.2205
     82  NE        80.6610   56.6030   78.8400 N.pl3 228  ARG228     -0.0865
     83  CZ        81.8520   56.7290   79.4040 C.cat 228  ARG228      0.5346
     84  NH1       82.3860   55.9220   80.3150 N.pl3 228  ARG228      0.1354
     85  NH2       82.5720   57.7020   78.9460 N.pl3 228  ARG228      0.1354
@<TRIPOS>BOND
     1     1     2    1
     2     3     2    1
     3     3     4    2
     4     2     5    1
     5    13    14    1
     6    59    58    2
     7     5     6    1
     8    15    16    2
     9    15    14    1
    10     8     6   ar
    11     8    10   ar
    12     6     7   ar
    13    14    17    1
    14    58    57    1
    15    10    11   ar
    16    51    52    1
    17     7     9   ar
    18    52    53    1
    19    52    55    1
    20    11     9   ar
    21    11    12    1
    22    19    18    2
    23    17    18    1
    24    57    56    1
    25    57    60    1
    26    53    56   am
    27    53    54    2
    28    18    20   am
    29    60    61    1
    30    63    61   ar
    31    40    42   ar
    32    40    38   ar
    33    37    38    1
    34    37    34    1
    35    42    43   ar
    36    38    39   ar
    37    78    77    2
    38    61    62   ar
    39    43    44    1
    40    43    41   ar
    41    39    41   ar
    42    76    79    1
    43    76    77    1
    44    76    75    1
    45    79    80    1
    46    35    34    1
    47    35    36    2
    48    34    33    1
    49    74    73    2
    50    75    73   am
    51    33    27   am
    52    73    72    1
    53    80    81    1
    54    82    81    1
    55    82    83    2
    56    85    83    1
    57    83    84    1
    58    72    71    1
    59    27    28    2
    60    27    26    1
    61    21    22    1
    62    32    30    1
    63    30    29    1
    64    30    31    1
    65    29    26    1
    66    71    66   am
    67    25    26    1
    68    25    23   am
    69    22    23    1
    70    23    24    2
    71    67    66    2
    72    66    65    1
    73    65    64    1
    74    65    68    1
    75    45    46    1
    76    68    69    1
    77    68    70    1
    78    46    47    1
    79    46    49    1
    80    47    48    2
    81    49    50    1
