@<TRIPOS>MOLECULE
tmp/2d7gB00.pdb
 103 103 0 0 0
SMALL
GASTEIGER

@<TRIPOS>ATOM
      1  N         57.2290    6.3020   39.6640 N.3    15  THR15      -0.1203
      2  CA        55.8270    6.2030   40.0500 C.3    15  THR15       0.1994
      3  C         54.8710    6.6040   38.9270 C.2    15  THR15       0.2618
      4  O         55.2690    7.2280   37.9420 O.2    15  THR15      -0.2717
      5  CB        55.5110    7.0940   41.2830 C.3    15  THR15       0.1784
      6  OG1       55.7800    8.4660   40.9710 O.3    15  THR15      -0.2211
      7  CG2       56.3430    6.6730   42.4780 C.3    15  THR15       0.0376
      8  N         53.6050    6.2330   39.0920 N.am   16  PHE16      -0.1961
      9  CA        52.5720    6.5550   38.1200 C.3    16  PHE16       0.1771
     10  C         51.5660    7.5070   38.7640 C.2    16  PHE16       0.2620
     11  O         51.0200    7.2270   39.8320 O.2    16  PHE16      -0.2715
     12  CB        51.8650    5.2830   37.6440 C.3    16  PHE16       0.0574
     13  CG        52.7960    4.2410   37.0860 C.ar   16  PHE16      -0.0200
     14  CD1       53.7020    3.5810   37.9140 C.ar   16  PHE16      -0.0042
     15  CD2       52.7670    3.9110   35.7360 C.ar   16  PHE16      -0.0042
     16  CE1       54.5640    2.6050   37.4050 C.ar   16  PHE16      -0.0003
     17  CE2       53.6250    2.9370   35.2180 C.ar   16  PHE16      -0.0003
     18  CZ        54.5240    2.2840   36.0560 C.ar   16  PHE16      -0.0000
     19  N         51.3470    8.6410   38.1060 N.am   17  ASP17      -0.1957
     20  CA        50.4270    9.6760   38.5620 C.3    17  ASP17       0.1840
     21  C         48.9790    9.3020   38.3040 C.2    17  ASP17       0.2622
     22  O         48.6150    8.8420   37.2190 O.2    17  ASP17      -0.2715
     23  CB        50.6910   11.0190   37.8570 C.3    17  ASP17       0.1450
     24  CG        52.0880   11.5580   38.1000 C.2    17  ASP17       0.3671
     25  OD1       52.5390   11.5510   39.2580 O.co2  17  ASP17      -0.2456
     26  OD2       52.7350   12.0060   37.1300 O.co2  17  ASP17      -0.2456
     27  N         48.1560    9.5140   39.3220 N.am   18  TYR18      -0.1974
     28  CA        46.7300    9.2510   39.2490 C.3    18  TYR18       0.1639
     29  C         46.0580   10.4550   39.8760 C.2    18  TYR18       0.2290
     30  O         46.6350   11.1050   40.7470 O.2    18  TYR18      -0.2864
     31  CB        46.3620    7.9830   40.0240 C.3    18  TYR18       0.0560
     32  CG        46.6520    6.7100   39.2640 C.ar   18  TYR18      -0.0198
     33  CD1       47.9610    6.2680   39.0690 C.ar   18  TYR18      -0.0009
     34  CD2       45.6170    5.9700   38.7010 C.ar   18  TYR18      -0.0009
     35  CE1       48.2270    5.1220   38.3290 C.ar   18  TYR18       0.0417
     36  CE2       45.8730    4.8270   37.9590 C.ar   18  TYR18       0.0417
     37  CZ        47.1770    4.4080   37.7760 C.ar   18  TYR18       0.1957
     38  OH        47.4290    3.2750   37.0370 O.3    18  TYR18      -0.2866
     39  N         43.1760    2.1580   38.2900 N.3    35  PRO35      -0.2102
     40  CA        42.9780    1.5180   36.9880 C.3    35  PRO35       0.1504
     41  C         44.2790    1.2960   36.2230 C.2    35  PRO35       0.2576
     42  O         45.1260    2.1860   36.1600 O.2    35  PRO35      -0.2718
     43  CB        42.0690    2.5020   36.2490 C.3    35  PRO35       0.0282
     44  CG        41.4750    3.3570   37.3380 C.3    35  PRO35       0.0208
     45  CD        42.6180    3.5180   38.2770 C.3    35  PRO35       0.0893
     46  N         44.4330    0.1140   35.6370 N.am   36  PHE36      -0.1963
     47  CA        45.6240   -0.1830   34.8530 C.3    36  PHE36       0.1771
     48  C         45.2120   -0.8770   33.5600 C.2    36  PHE36       0.2620
     49  O         44.1620   -1.5180   33.4970 O.2    36  PHE36      -0.2715
     50  CB        46.5950   -1.0750   35.6330 C.3    36  PHE36       0.0574
     51  CG        47.9630   -1.1690   35.0070 C.ar   36  PHE36      -0.0200
     52  CD1       48.8080   -0.0620   34.9790 C.ar   36  PHE36      -0.0042
     53  CD2       48.4000   -2.3550   34.4270 C.ar   36  PHE36      -0.0042
     54  CE1       50.0660   -0.1350   34.3810 C.ar   36  PHE36      -0.0003
     55  CE2       49.6570   -2.4390   33.8270 C.ar   36  PHE36      -0.0003
     56  CZ        50.4900   -1.3270   33.8040 C.ar   36  PHE36      -0.0000
     57  N         46.0400   -0.7420   32.5300 N.am   37  GLY37      -0.1954
     58  CA        45.7330   -1.3570   31.2530 C.3    37  GLY37       0.1869
     59  C         44.5670   -0.6650   30.5740 C.2    37  GLY37       0.2309
     60  O         44.7550    0.2920   29.8230 O.2    37  GLY37      -0.2863
     61  N         53.8840   15.3000   35.2050 N.3    54  GLU54      -0.1231
     62  CA        54.5020   15.2750   33.8870 C.3    54  GLU54       0.1699
     63  C         53.4850   15.3700   32.7510 C.2    54  GLU54       0.2592
     64  O         53.7770   15.9460   31.7030 O.2    54  GLU54      -0.2718
     65  CB        55.3330   13.9980   33.7230 C.3    54  GLU54       0.0402
     66  CG        56.0840   13.9080   32.4010 C.3    54  GLU54       0.1161
     67  CD        56.8220   12.5930   32.2360 C.2    54  GLU54       0.3649
     68  OE1       57.6440   12.2560   33.1150 O.co2  54  GLU54      -0.2457
     69  OE2       56.5820   11.8960   31.2270 O.co2  54  GLU54      -0.2457
     70  N         52.2950   14.8100   32.9540 N.am   55  LEU55      -0.1980
     71  CA        51.2570   14.8370   31.9220 C.3    55  LEU55       0.1596
     72  C         50.1040   15.7810   32.2510 C.2    55  LEU55       0.2287
     73  O         49.9280   16.1830   33.4010 O.2    55  LEU55      -0.2864
     74  CB        50.6940   13.4320   31.6920 C.3    55  LEU55       0.0297
     75  CG        51.6730   12.3420   31.2600 C.3    55  LEU55       0.0022
     76  CD1       52.5650   11.9550   32.4310 C.3    55  LEU55       0.0001
     77  CD2       50.8930   11.1340   30.7740 C.3    55  LEU55       0.0001
     78  N         44.3970   13.9230   31.3690 N.3    59  GLU59      -0.1231
     79  CA        44.4400   12.5260   30.9530 C.3    59  GLU59       0.1699
     80  C         44.9910   11.5350   31.9720 C.2    59  GLU59       0.2592
     81  O         45.6330   10.5490   31.6100 O.2    59  GLU59      -0.2718
     82  CB        45.1910   12.3700   29.6260 C.3    59  GLU59       0.0402
     83  CG        44.8250   11.0760   28.8960 C.3    59  GLU59       0.1161
     84  CD        45.4730   10.9470   27.5330 C.2    59  GLU59       0.3649
     85  OE1       45.1240    9.9960   26.8010 O.co2  59  GLU59      -0.2457
     86  OE2       46.3300   11.7890   27.1950 O.co2  59  GLU59      -0.2457
     87  N         44.7270   11.7850   33.2480 N.am   60  LEU60      -0.1966
     88  CA        45.1840   10.8750   34.2860 C.3    60  LEU60       0.1728
     89  C         43.9710   10.2680   34.9890 C.2    60  LEU60       0.2616
     90  O         43.1540   10.9800   35.5760 O.2    60  LEU60      -0.2715
     91  CB        46.0910   11.6100   35.2820 C.3    60  LEU60       0.0311
     92  CG        45.5070   12.6070   36.2850 C.3    60  LEU60       0.0022
     93  CD1       46.6490   13.4070   36.8950 C.3    60  LEU60       0.0001
     94  CD2       44.5210   13.5340   35.6090 C.3    60  LEU60       0.0001
     95  N         43.8460    8.9470   34.8970 N.am   61  LYS61      -0.1977
     96  CA        42.7350    8.2400   35.5220 C.3    61  LYS61       0.1596
     97  C         42.6600    8.5880   37.0000 C.2    61  LYS61       0.2287
     98  O         43.6510    9.0070   37.5970 O.2    61  LYS61      -0.2864
     99  CB        42.8950    6.7280   35.3400 C.3    61  LYS61       0.0298
    100  CG        42.5780    6.2520   33.9330 C.3    61  LYS61       0.0038
    101  CD        42.7250    4.7470   33.7970 C.3    61  LYS61       0.0206
    102  CE        41.9820    4.2280   32.5680 C.3    61  LYS61       0.1093
    103  NZ        42.4210    4.8880   31.3070 N.3    61  LYS61      -0.1314
@<TRIPOS>BOND
     1    85    84   ar
     2    86    84   ar
     3    84    83    1
     4    83    82    1
     5    82    79    1
     6    60    59    2
     7    59    58    1
     8    77    75    1
     9    79    78    1
    10    79    80    1
    11    69    67   ar
    12    58    57    1
    13    75    74    1
    14    75    76    1
    15   103   102    1
    16    81    80    2
    17    74    71    1
    18    64    63    2
    19    71    72    1
    20    71    70    1
    21    80    87   am
    22    67    66    1
    23    67    68   ar
    24    72    73    2
    25    66    65    1
    26    57    48   am
    27   102   101    1
    28    63    70   am
    29    63    62    1
    30    87    88    1
    31    49    48    2
    32    48    47    1
    33    65    62    1
    34   101   100    1
    35    56    55   ar
    36    56    54   ar
    37    55    53   ar
    38    62    61    1
    39   100    99    1
    40    88    89    1
    41    88    91    1
    42    54    52   ar
    43    53    51   ar
    44    47    50    1
    45    47    46    1
    46    95    89   am
    47    95    96    1
    48    52    51   ar
    49    89    90    2
    50    51    50    1
    51    17    15   ar
    52    17    18   ar
    53    91    92    1
    54    99    96    1
    55    96    97    1
    56    94    92    1
    57    46    41   am
    58    15    13   ar
    59    18    16   ar
    60    42    41    2
    61    41    40    1
    62    43    40    1
    63    43    44    1
    64    92    93    1
    65    40    39    1
    66    97    98    2
    67    38    37    1
    68    13    12    1
    69    13    14   ar
    70    26    24   ar
    71    22    21    2
    72    44    45    1
    73    16    14   ar
    74    12     9    1
    75    37    36   ar
    76    37    35   ar
    77    23    24    1
    78    23    20    1
    79     4     3    2
    80    36    34   ar
    81    24    25   ar
    82    19    20    1
    83    19    10   am
    84     9    10    1
    85     9     8    1
    86    45    39    1
    87    21    20    1
    88    21    27   am
    89    35    33   ar
    90    34    32   ar
    91    10    11    2
    92     3     8   am
    93     3     2    1
    94    33    32   ar
    95    28    27    1
    96    28    29    1
    97    28    31    1
    98    32    31    1
    99     1     2    1
   100    29    30    2
   101     2     5    1
   102     6     5    1
   103     5     7    1
