@<TRIPOS>MOLECULE
tmp/2d7hA00.pdb
 118 118 0 0 0
SMALL
GASTEIGER

@<TRIPOS>ATOM
      1  N         60.0670   -0.8500   30.2950 N.3    12  THR12      -0.1203
      2  CA        60.4660   -0.2520   29.0310 C.3    12  THR12       0.1994
      3  C         59.3790    0.6210   28.4310 C.2    12  THR12       0.2618
      4  O         58.2140    0.5190   28.8090 O.2    12  THR12      -0.2717
      5  CB        60.7740   -1.3390   28.0140 C.3    12  THR12       0.1784
      6  OG1       60.8990   -0.7490   26.7180 O.3    12  THR12      -0.2211
      7  CG2       59.6450   -2.3650   27.9810 C.3    12  THR12       0.0376
      8  N         59.7760    1.4650   27.4800 N.am   13  PHE13      -0.1961
      9  CA        58.8690    2.3620   26.7640 C.3    13  PHE13       0.1771
     10  C         58.6750    1.8630   25.3400 C.2    13  PHE13       0.2620
     11  O         59.6520    1.5740   24.6330 O.2    13  PHE13      -0.2715
     12  CB        59.4290    3.7640   26.7280 C.3    13  PHE13       0.0574
     13  CG        59.6700    4.3210   28.0690 C.ar   13  PHE13      -0.0200
     14  CD1       60.7230    3.8640   28.8420 C.ar   13  PHE13      -0.0042
     15  CD2       58.8220    5.2800   28.5890 C.ar   13  PHE13      -0.0042
     16  CE1       60.9290    4.3570   30.1180 C.ar   13  PHE13      -0.0003
     17  CE2       59.0210    5.7820   29.8730 C.ar   13  PHE13      -0.0003
     18  CZ        60.0760    5.3200   30.6370 C.ar   13  PHE13      -0.0000
     19  N         57.4100    1.7780   24.9260 N.am   14  ASP14      -0.1957
     20  CA        57.0820    1.2680   23.6040 C.3    14  ASP14       0.1840
     21  C         56.8740    2.3890   22.5910 C.2    14  ASP14       0.2622
     22  O         56.1280    3.3280   22.8260 O.2    14  ASP14      -0.2715
     23  CB        55.8400    0.3590   23.6870 C.3    14  ASP14       0.1450
     24  CG        55.9400   -0.6840   24.8110 C.2    14  ASP14       0.3671
     25  OD1       56.4940   -1.7760   24.5910 O.co2  14  ASP14      -0.2456
     26  OD2       55.4770   -0.4060   25.9360 O.co2  14  ASP14      -0.2456
     27  N         57.5520    2.2690   21.4610 N.am   15  TYR15      -0.1974
     28  CA        57.4790    3.2520   20.4150 C.3    15  TYR15       0.1639
     29  C         57.0890    2.5070   19.1660 C.2    15  TYR15       0.2290
     30  O         57.4500    1.3400   18.9980 O.2    15  TYR15      -0.2864
     31  CB        58.8480    3.9050   20.2200 C.3    15  TYR15       0.0560
     32  CG        59.2890    4.8030   21.3590 C.ar   15  TYR15      -0.0198
     33  CD1       59.8830    4.2810   22.5110 C.ar   15  TYR15      -0.0009
     34  CD2       59.0900    6.1830   21.2900 C.ar   15  TYR15      -0.0009
     35  CE1       60.2650    5.1170   23.5710 C.ar   15  TYR15       0.0417
     36  CE2       59.4710    7.0240   22.3360 C.ar   15  TYR15       0.0417
     37  CZ        60.0560    6.4910   23.4750 C.ar   15  TYR15       0.1957
     38  OH        60.4180    7.3410   24.5030 O.3    15  TYR15      -0.2866
     39  N         61.0750   10.1800   20.7620 N.3    32  PRO32      -0.2102
     40  CA        60.5160   11.3730   21.4000 C.3    32  PRO32       0.1504
     41  C         60.3990   11.1030   22.9100 C.2    32  PRO32       0.2576
     42  O         60.3440    9.9470   23.3390 O.2    32  PRO32      -0.2718
     43  CB        59.1490   11.5020   20.7430 C.3    32  PRO32       0.0282
     44  CG        59.3720   10.9270   19.3950 C.3    32  PRO32       0.0208
     45  CD        60.1780    9.6930   19.7040 C.3    32  PRO32       0.0893
     46  N         60.3880   12.1610   23.7110 N.am   33  PHE33      -0.1963
     47  CA        60.2320   12.0010   25.1510 C.3    33  PHE33       0.1771
     48  C         59.6220   13.2500   25.7540 C.2    33  PHE33       0.2620
     49  O         60.2530   14.3100   25.8070 O.2    33  PHE33      -0.2715
     50  CB        61.5590   11.6980   25.8210 C.3    33  PHE33       0.0574
     51  CG        61.4180   10.9460   27.1090 C.ar   33  PHE33      -0.0200
     52  CD1       60.8510    9.6790   27.1220 C.ar   33  PHE33      -0.0042
     53  CD2       61.8670   11.4980   28.3100 C.ar   33  PHE33      -0.0042
     54  CE1       60.7340    8.9680   28.3060 C.ar   33  PHE33      -0.0003
     55  CE2       61.7560   10.7910   29.5080 C.ar   33  PHE33      -0.0003
     56  CZ        61.1870    9.5210   29.5040 C.ar   33  PHE33      -0.0000
     57  N         58.3890   13.1090   26.2250 N.am   34  GLY34      -0.1940
     58  CA        57.6880   14.2440   26.7820 C.3    34  GLY34       0.2014
     59  C         57.3160   15.1250   25.5990 C.2    34  GLY34       0.2638
     60  O         58.1440   15.3780   24.7360 O.2    34  GLY34      -0.2714
     61  N         56.0620   15.5600   25.5380 N.am   35  LYS35      -0.1977
     62  CA        55.5210   16.4170   24.4730 C.3    35  LYS35       0.1596
     63  C         56.3330   16.7890   23.2140 C.2    35  LYS35       0.2287
     64  O         55.8300   16.6200   22.1050 O.2    35  LYS35      -0.2864
     65  CB        54.9860   17.7160   25.0960 C.3    35  LYS35       0.0298
     66  CG        56.0430   18.8040   25.3100 C.3    35  LYS35       0.0038
     67  CD        57.2430   18.3130   26.1070 C.3    35  LYS35       0.0206
     68  CE        58.3590   19.3320   26.0760 C.3    35  LYS35       0.1093
     69  NZ        59.5110   18.8470   26.8700 N.3    35  LYS35      -0.1314
     70  N         51.6840   -3.9140   22.1890 N.3    50  SER50      -0.1202
     71  CA        51.9370   -3.0170   23.3090 C.3    50  SER50       0.2020
     72  C         50.6630   -2.8330   24.1230 C.2    50  SER50       0.2619
     73  O         49.5640   -3.0490   23.6130 O.2    50  SER50      -0.2717
     74  CB        52.4160   -1.6580   22.8050 C.3    50  SER50       0.2103
     75  OG        52.6950   -0.7960   23.8960 O.3    50  SER50      -0.2182
     76  N         50.8160   -2.4370   25.3850 N.am   51  GLU51      -0.1965
     77  CA        49.6730   -2.2170   26.2680 C.3    51  GLU51       0.1733
     78  C         48.6870   -1.2820   25.5840 C.2    51  GLU51       0.2616
     79  O         47.4680   -1.4710   25.6610 O.2    51  GLU51      -0.2715
     80  CB        50.1250   -1.6000   27.5990 C.3    51  GLU51       0.0429
     81  CG        48.9670   -1.1290   28.4790 C.3    51  GLU51       0.1163
     82  CD        49.4170   -0.5410   29.8060 C.2    51  GLU51       0.3649
     83  OE1       49.9450   -1.3000   30.6490 O.co2  51  GLU51      -0.2457
     84  OE2       49.2430    0.6830   30.0090 O.co2  51  GLU51      -0.2457
     85  N         49.2340   -0.2710   24.9150 N.am   52  LEU52      -0.1977
     86  CA        48.4290    0.7080   24.1960 C.3    52  LEU52       0.1596
     87  C         48.4340    0.3710   22.7100 C.2    52  LEU52       0.2287
     88  O         49.3730   -0.2490   22.2040 O.2    52  LEU52      -0.2864
     89  CB        48.9810    2.1250   24.4080 C.3    52  LEU52       0.0297
     90  CG        49.0880    2.6230   25.8550 C.3    52  LEU52       0.0022
     91  CD1       50.1420    1.8270   26.6220 C.3    52  LEU52       0.0001
     92  CD2       49.4420    4.0950   25.8580 C.3    52  LEU52       0.0001
     93  N         48.7620    4.7560   18.9750 N.3    56  GLU56      -0.1231
     94  CA        49.0400    5.6480   20.0970 C.3    56  GLU56       0.1699
     95  C         50.5230    5.7370   20.4490 C.2    56  GLU56       0.2592
     96  O         50.9390    6.6360   21.1740 O.2    56  GLU56      -0.2718
     97  CB        48.2400    5.2220   21.3280 C.3    56  GLU56       0.0402
     98  CG        46.7550    5.4960   21.1980 C.3    56  GLU56       0.1161
     99  CD        45.9970    5.2850   22.4910 C.2    56  GLU56       0.3649
    100  OE1       44.7920    5.6230   22.5280 O.co2  56  GLU56      -0.2457
    101  OE2       46.6010    4.7820   23.4640 O.co2  56  GLU56      -0.2457
    102  N         51.3150    4.8110   19.9230 N.am   57  LEU57      -0.1966
    103  CA        52.7450    4.7790   20.1880 C.3    57  LEU57       0.1728
    104  C         53.4680    5.7520   19.2860 C.2    57  LEU57       0.2616
    105  O         53.3190    5.6850   18.0660 O.2    57  LEU57      -0.2715
    106  CB        53.2940    3.3870   19.9210 C.3    57  LEU57       0.0311
    107  CG        52.5880    2.2550   20.6600 C.3    57  LEU57       0.0022
    108  CD1       53.1250    0.9400   20.1330 C.3    57  LEU57       0.0001
    109  CD2       52.7760    2.3910   22.1830 C.3    57  LEU57       0.0001
    110  N         54.2590    6.6480   19.8730 N.am   58  LYS58      -0.1977
    111  CA        55.0000    7.6020   19.0690 C.3    58  LYS58       0.1596
    112  C         56.0290    6.8050   18.2790 C.2    58  LYS58       0.2287
    113  O         56.5480    5.7950   18.7420 O.2    58  LYS58      -0.2864
    114  CB        55.6630    8.6590   19.9630 C.3    58  LYS58       0.0298
    115  CG        54.6610    9.6060   20.6440 C.3    58  LYS58       0.0038
    116  CD        55.3380   10.6560   21.5170 C.3    58  LYS58       0.0206
    117  CE        54.3360   11.5000   22.3070 C.3    58  LYS58       0.1093
    118  NZ        55.0090   12.2790   23.4050 N.3    58  LYS58      -0.1314
@<TRIPOS>BOND
     1   105   104    2
     2   112   113    2
     3   112   111    1
     4    93    94    1
     5    30    29    2
     6   111   110    1
     7   111   114    1
     8    29    28    1
     9   104   110   am
    10   104   103    1
    11    44    45    1
    12    44    43    1
    13    45    39    1
    14   106   103    1
    15   106   107    1
    16   102   103    1
    17   102    95   am
    18   114   115    1
    19    94    95    1
    20    94    97    1
    21   108   107    1
    22    31    28    1
    23    31    32    1
    24    28    27    1
    25    95    96    2
    26   115   116    1
    27   107   109    1
    28    43    40    1
    29    39    40    1
    30    98    97    1
    31    98    99    1
    32    34    32   ar
    33    34    36   ar
    34    32    33   ar
    35    40    41    1
    36    27    21   am
    37   116   117    1
    38    64    63    2
    39    70    71    1
    40    88    87    2
    41   117   118    1
    42    36    37   ar
    43    99   100   ar
    44    99   101   ar
    45    33    35   ar
    46    21    22    2
    47    21    20    1
    48    87    86    1
    49    74    71    1
    50    74    75    1
    51    41    42    2
    52    41    46   am
    53    63    62    1
    54    71    72    1
    55    37    35   ar
    56    37    38    1
    57    20    23    1
    58    20    19    1
    59    73    72    2
    60    23    24    1
    61    46    47    1
    62    72    76   am
    63    86    89    1
    64    86    85    1
    65    89    90    1
    66    62    65    1
    67    62    61    1
    68    25    24   ar
    69    11    10    2
    70    60    59    2
    71    24    26   ar
    72    85    78   am
    73    19    10   am
    74    65    66    1
    75    47    48    1
    76    47    50    1
    77    66    67    1
    78    10     9    1
    79    76    77    1
    80    61    59   am
    81    78    79    2
    82    78    77    1
    83    59    58    1
    84    48    49    2
    85    48    57   am
    86    50    51    1
    87    90    92    1
    88    90    91    1
    89    68    67    1
    90    68    69    1
    91    57    58    1
    92    77    80    1
    93     6     5    1
    94    12     9    1
    95    12    13    1
    96     9     8    1
    97    51    52   ar
    98    51    53   ar
    99    52    54   ar
   100     8     3   am
   101    80    81    1
   102     7     5    1
   103     5     2    1
   104    13    15   ar
   105    13    14   ar
   106    54    56   ar
   107    53    55   ar
   108     3     4    2
   109     3     2    1
   110    81    82    1
   111    15    17   ar
   112    14    16   ar
   113     2     1    1
   114    56    55   ar
   115    82    84   ar
   116    82    83   ar
   117    17    18   ar
   118    16    18   ar
