@<TRIPOS>MOLECULE
tmp/2d7iA04.pdb
 177 175 0 0 0
SMALL
GASTEIGER

@<TRIPOS>ATOM
      1  N         15.8920   38.8920   24.9920 N.3    85  PRO85      -0.2102
      2  CA        16.0370   40.1920   25.6380 C.3    85  PRO85       0.1504
      3  C         14.7900   41.0010   25.3710 C.2    85  PRO85       0.2576
      4  O         14.1710   40.8830   24.3160 O.2    85  PRO85      -0.2718
      5  CB        17.2430   40.7900   24.9340 C.3    85  PRO85       0.0282
      6  CG        17.0500   40.2850   23.5180 C.3    85  PRO85       0.0208
      7  CD        16.6920   38.8260   23.7530 C.3    85  PRO85       0.0893
      8  N         14.4140   41.8360   26.3210 N.am   86  PHE86      -0.1963
      9  CA        13.2340   42.6420   26.1130 C.3    86  PHE86       0.1771
     10  C         13.2870   43.9180   26.9400 C.2    86  PHE86       0.2619
     11  O         13.9730   43.9970   27.9650 O.2    86  PHE86      -0.2715
     12  CB        11.9780   41.8150   26.4350 C.3    86  PHE86       0.0574
     13  CG        11.7450   41.5990   27.8910 C.ar   86  PHE86      -0.0200
     14  CD1       11.0810   42.5600   28.6530 C.ar   86  PHE86      -0.0042
     15  CD2       12.1520   40.4210   28.4990 C.ar   86  PHE86      -0.0042
     16  CE1       10.8200   42.3480   30.0110 C.ar   86  PHE86      -0.0003
     17  CE2       11.9000   40.1920   29.8580 C.ar   86  PHE86      -0.0003
     18  CZ        11.2310   41.1600   30.6150 C.ar   86  PHE86      -0.0000
     19  N         12.5410   44.9080   26.4840 N.am   87  HIS87      -0.1973
     20  CA        12.4890   46.1960   27.1390 C.3    87  HIS87       0.1656
     21  C         11.1060   46.7730   26.9040 C.2    87  HIS87       0.2291
     22  O         10.7410   47.0600   25.7570 O.2    87  HIS87      -0.2864
     23  CB        13.5370   47.1160   26.5200 C.3    87  HIS87       0.0771
     24  CG        13.4660   48.5250   27.0110 C.ar   87  HIS87       0.0820
     25  ND1       13.9080   48.9010   28.2610 N.ar   87  HIS87      -0.2267
     26  CD2       12.9540   49.6430   26.4400 C.ar   87  HIS87       0.1154
     27  CE1       13.6700   50.1890   28.4410 C.ar   87  HIS87       0.1986
     28  NE2       13.0900   50.6630   27.3520 N.ar   87  HIS87      -0.2212
     29  N          8.3670   45.5390   26.5820 N.3    89  GLU89      -0.1245
     30  CA         7.6870   44.8170   25.5250 C.3    89  GLU89       0.1567
     31  C          6.2450   44.5480   25.9610 C.2    89  GLU89       0.2260
     32  O          5.9590   44.4280   27.1510 O.2    89  GLU89      -0.2867
     33  CB         8.4340   43.5090   25.2460 C.3    89  GLU89       0.0388
     34  CG         8.3430   43.0220   23.7940 C.3    89  GLU89       0.1160
     35  CD         8.8960   44.0390   22.8070 C.2    89  GLU89       0.3649
     36  OE1       10.0950   44.3960   22.9090 O.co2  89  GLU89      -0.2457
     37  OE2        8.1200   44.4880   21.9350 O.co2  89  GLU89      -0.2457
     38  N         15.5890   44.2920   30.1460 N.3   118  ASP118     -0.1239
     39  CA        16.5140   45.4110   30.0790 C.3   118  ASP118      0.1674
     40  C         15.9140   46.6520   30.7400 C.2   118  ASP118      0.2266
     41  O         15.4400   47.5720   30.0770 O.2   118  ASP118     -0.2867
     42  CB        16.9000   45.7270   28.6330 C.3   118  ASP118      0.1410
     43  CG        17.9420   46.8310   28.5370 C.2   118  ASP118      0.3668
     44  OD1       18.6230   47.0860   29.5540 O.co2 118  ASP118     -0.2456
     45  OD2       18.0880   47.4340   27.4500 O.co2 118  ASP118     -0.2456
     46  N         19.5560   50.4760   32.4500 N.3   147  ARG147     -0.1245
     47  CA        19.3680   50.3120   31.0080 C.3   147  ARG147      0.1563
     48  C         20.7000   49.9110   30.3890 C.2   147  ARG147      0.2260
     49  O         21.6650   50.6730   30.4480 O.2   147  ARG147     -0.2867
     50  CB        18.8920   51.6110   30.3700 C.3   147  ARG147      0.0307
     51  CG        18.5440   51.4750   28.8860 C.3   147  ARG147      0.0489
     52  CD        17.3490   50.5490   28.6670 C.3   147  ARG147      0.2205
     53  NE        16.9280   50.5180   27.2700 N.pl3 147  ARG147     -0.0865
     54  CZ        16.3610   51.5360   26.6250 C.cat 147  ARG147      0.5346
     55  NH1       16.1310   52.6890   27.2400 N.pl3 147  ARG147      0.1354
     56  NH2       16.0360   51.4070   25.3490 N.pl3 147  ARG147      0.1354
     57  N         20.8010   48.0560   27.0720 N.3   149  GLY149     -0.1210
     58  CA        20.7150   48.0220   25.6240 C.3   149  GLY149      0.1956
     59  C         20.6430   46.5840   25.1520 C.2   149  GLY149      0.2611
     60  O         21.1150   45.6770   25.8420 O.2   149  GLY149     -0.2717
     61  N         20.0820   46.3690   23.9650 N.am  150  LEU150     -0.1979
     62  CA        19.9210   45.0150   23.4480 C.3   150  LEU150      0.1596
     63  C         21.2410   44.2480   23.3430 C.2   150  LEU150      0.2287
     64  O         21.3100   43.0720   23.7010 O.2   150  LEU150     -0.2864
     65  CB        19.1860   45.0530   22.0980 C.3   150  LEU150      0.0297
     66  CG        19.9340   45.4300   20.8170 C.3   150  LEU150      0.0022
     67  CD1       20.5710   44.1780   20.2020 C.3   150  LEU150      0.0001
     68  CD2       18.9660   46.0410   19.8360 C.3   150  LEU150      0.0001
     69  N         22.4180   43.4910   26.8000 N.3   153  THR153     -0.1203
     70  CA        21.3730   42.6910   27.4160 C.3   153  THR153      0.1994
     71  C         21.4510   41.2710   26.8650 C.2   153  THR153      0.2617
     72  O         21.2060   40.3160   27.5920 O.2   153  THR153     -0.2717
     73  CB        19.9710   43.3030   27.1770 C.3   153  THR153      0.1784
     74  OG1       19.9330   44.6300   27.7330 O.3   153  THR153     -0.2211
     75  CG2       18.8890   42.4470   27.8400 C.3   153  THR153      0.0376
     76  N         21.8190   41.1170   25.5950 N.am  154  ARG154     -0.1979
     77  CA        21.9400   39.7700   25.0400 C.3   154  ARG154      0.1597
     78  C         23.1750   39.1130   25.6330 C.2   154  ARG154      0.2287
     79  O         23.2130   37.9010   25.8290 O.2   154  ARG154     -0.2864
     80  CB        22.0260   39.7940   23.5100 C.3   154  ARG154      0.0334
     81  CG        20.7180   40.1680   22.8610 C.3   154  ARG154      0.0492
     82  CD        20.4640   39.4410   21.5500 C.3   154  ARG154      0.2205
     83  NE        21.1490   40.0600   20.4300 N.pl3 154  ARG154     -0.0865
     84  CZ        20.5330   40.5320   19.3510 C.cat 154  ARG154      0.5346
     85  NH1       19.2150   40.4530   19.2510 N.pl3 154  ARG154      0.1354
     86  NH2       21.2360   41.0910   18.3740 N.pl3 154  ARG154      0.1354
     87  N         14.1080   37.7360   19.2450 N.3   170  ASP170     -0.1225
     88  CA        13.5400   38.9870   19.7200 C.3   170  ASP170      0.1805
     89  C         12.2820   38.6580   20.5190 C.2   170  ASP170      0.2598
     90  O         11.7280   37.5690   20.3900 O.2   170  ASP170     -0.2718
     91  CB        13.2210   39.9050   18.5560 C.3   170  ASP170      0.1424
     92  CG        14.3270   40.8830   18.2920 C.2   170  ASP170      0.3668
     93  OD1       15.4400   40.6990   18.8550 O.co2 170  ASP170     -0.2456
     94  OD2       14.0820   41.8390   17.5230 O.co2 170  ASP170     -0.2456
     95  N         11.8340   39.5880   21.3500 N.am  171  SER171     -0.1938
     96  CA        10.6760   39.3250   22.2020 C.3   171  SER171      0.2055
     97  C          9.3170   39.3560   21.5450 C.2   171  SER171      0.2643
     98  O          8.3050   39.2380   22.2230 O.2   171  SER171     -0.2714
     99  CB        10.6610   40.2810   23.3830 C.3   171  SER171      0.2130
    100  OG        10.7020   41.6270   22.9410 O.3   171  SER171     -0.2179
    101  N          9.2900   39.5220   20.2330 N.am  172  HIS172     -0.1973
    102  CA         8.0270   39.5550   19.4920 C.3   172  HIS172      0.1656
    103  C          8.1560   38.6380   18.2800 C.2   172  HIS172      0.2291
    104  O          8.1110   39.0880   17.1400 O.2   172  HIS172     -0.2864
    105  CB         7.6920   40.9860   19.0310 C.3   172  HIS172      0.0771
    106  CG         8.8970   41.8400   18.8120 C.ar  172  HIS172      0.0820
    107  ND1        9.3650   42.7180   19.7650 N.ar  172  HIS172     -0.2267
    108  CD2        9.7870   41.8810   17.7940 C.ar  172  HIS172      0.1154
    109  CE1       10.4920   43.2620   19.3440 C.ar  172  HIS172      0.1986
    110  NE2       10.7710   42.7690   18.1490 N.ar  172  HIS172     -0.2212
    111  N         22.4470   51.0610   22.4830 N.3   274  ILE274     -0.1231
    112  CA        21.0830   50.5500   22.5660 C.3   274  ILE274      0.1692
    113  C         20.6390   49.6490   21.4220 C.2   274  ILE274      0.2592
    114  O         20.0400   48.5930   21.6440 O.2   274  ILE274     -0.2718
    115  CB        20.0710   51.7310   22.6910 C.3   274  ILE274      0.0266
    116  CG1       20.0930   52.2940   24.1160 C.3   274  ILE274      0.0019
    117  CG2       18.6690   51.2770   22.3140 C.3   274  ILE274      0.0020
    118  CD1       21.4170   52.8770   24.5170 C.3   274  ILE274      0.0001
    119  N         20.9510   50.0620   20.2020 N.am  275  TRP275     -0.1976
    120  CA        20.5260   49.3220   19.0370 C.3   275  TRP275      0.1640
    121  C         21.4800   49.5920   17.8690 C.2   275  TRP275      0.2290
    122  O         22.1250   50.6430   17.8180 O.2   275  TRP275     -0.2864
    123  CB        19.1010   49.7850   18.7100 C.3   275  TRP275      0.0576
    124  CG        18.4540   49.1670   17.5300 C.ar  275  TRP275      0.0006
    125  CD1       17.4940   48.1880   17.5350 C.ar  275  TRP275      0.0946
    126  CD2       18.6600   49.5200   16.1620 C.ar  275  TRP275      0.0152
    127  NE1       17.0850   47.9170   16.2480 N.ar  275  TRP275     -0.2442
    128  CE2       17.7850   48.7210   15.3850 C.ar  275  TRP275      0.0810
    129  CE3       19.4980   50.4350   15.5130 C.ar  275  TRP275      0.0012
    130  CZ2       17.7260   48.8140   13.9890 C.ar  275  TRP275      0.0191
    131  CZ3       19.4390   50.5250   14.1180 C.ar  275  TRP275      0.0001
    132  CH2       18.5570   49.7180   13.3750 C.ar  275  TRP275      0.0015
    133  N          8.4980   37.3410   12.8600 N.3   303  HIS303     -0.1241
    134  CA         8.9990   38.4850   13.6140 C.3   303  HIS303      0.1621
    135  C          8.1340   39.6850   13.3010 C.2   303  HIS303      0.2264
    136  O          7.7490   39.8890   12.1570 O.2   303  HIS303     -0.2867
    137  CB        10.4490   38.7950   13.2320 C.3   303  HIS303      0.0745
    138  CG        10.9840   40.0450   13.8640 C.ar  303  HIS303      0.0817
    139  ND1       10.8850   41.2830   13.2660 N.ar  303  HIS303     -0.2268
    140  CD2       11.5610   40.2550   15.0720 C.ar  303  HIS303      0.1154
    141  CE1       11.3740   42.2020   14.0800 C.ar  303  HIS303      0.1986
    142  NE2       11.7890   41.6050   15.1830 N.ar  303  HIS303     -0.2212
    143  N          7.9330   43.3990   12.6710 N.3   305  TYR305     -0.1227
    144  CA         8.7400   44.5920   12.3910 C.3   305  TYR305      0.1736
    145  C          7.9520   45.8270   12.8410 C.2   305  TYR305      0.2595
    146  O          6.8040   46.0310   12.4480 O.2   305  TYR305     -0.2718
    147  CB         9.0700   44.6940   10.9030 C.3   305  TYR305      0.0548
    148  CG         9.9540   43.5730   10.4240 C.ar  305  TYR305     -0.0200
    149  CD1        9.4220   42.3110   10.1520 C.ar  305  TYR305     -0.0009
    150  CD2       11.3240   43.7600   10.2820 C.ar  305  TYR305     -0.0009
    151  CE1       10.2370   41.2690    9.7560 C.ar  305  TYR305      0.0417
    152  CE2       12.1420   42.7270    9.8860 C.ar  305  TYR305      0.0417
    153  CZ        11.6010   41.4830    9.6280 C.ar  305  TYR305      0.1957
    154  OH        12.4220   40.4340    9.2720 O.3   305  TYR305     -0.2866
    155  N          8.5770   46.6480   13.6690 N.am  306  ARG306     -0.1980
    156  CA         7.9060   47.8140   14.2090 C.3   306  ARG306      0.1597
    157  C          7.5400   48.8490   13.1770 C.2   306  ARG306      0.2287
    158  O          8.2790   49.0580   12.2230 O.2   306  ARG306     -0.2864
    159  CB         8.7800   48.4840   15.2740 C.3   306  ARG306      0.0334
    160  CG         9.1420   47.6040   16.4580 C.3   306  ARG306      0.0492
    161  CD         9.9600   48.3860   17.4560 C.3   306  ARG306      0.2205
    162  NE        10.6690   47.5340   18.4090 N.pl3 306  ARG306     -0.0865
    163  CZ        10.1420   47.0520   19.5250 C.cat 306  ARG306      0.5346
    164  NH1        8.8850   47.3410   19.8360 N.pl3 306  ARG306      0.1354
    165  NH2       10.8720   46.2870   20.3330 N.pl3 306  ARG306      0.1354
    166  N         10.1790   52.7270   22.5700 N.3   311  TYR311     -0.1241
    167  CA        11.0210   53.0700   23.7070 C.3   311  TYR311      0.1605
    168  C         11.8690   54.3110   23.5090 C.2   311  TYR311      0.2264
    169  O         11.9650   54.8540   22.4050 O.2   311  TYR311     -0.2867
    170  CB        11.9240   51.8990   24.1040 C.3   311  TYR311      0.0534
    171  CG        12.6820   51.2370   22.9750 C.ar  311  TYR311     -0.0201
    172  CD1       12.1970   50.0710   22.3830 C.ar  311  TYR311     -0.0009
    173  CD2       13.9170   51.7340   22.5410 C.ar  311  TYR311     -0.0009
    174  CE1       12.9220   49.4030   21.3940 C.ar  311  TYR311      0.0417
    175  CE2       14.6550   51.0740   21.5460 C.ar  311  TYR311      0.0417
    176  CZ        14.1500   49.9070   20.9780 C.ar  311  TYR311      0.1957
    177  OH        14.8560   49.2350   20.0020 O.3   311  TYR311     -0.2866
@<TRIPOS>BOND
     1   154   153    1
     2   153   151   ar
     3   153   152   ar
     4   151   149   ar
     5   152   150   ar
     6   149   148   ar
     7   150   148   ar
     8   148   147    1
     9   147   144    1
    10   136   135    2
    11   158   157    2
    12   144   143    1
    13   144   145    1
    14   146   145    2
    15   145   155   am
    16   133   134    1
    17   157   156    1
    18   137   134    1
    19   137   138    1
    20   139   138   ar
    21   139   141   ar
    22   135   134    1
    23   132   130   ar
    24   132   131   ar
    25   155   156    1
    26   138   140   ar
    27   130   128   ar
    28   141   142   ar
    29   131   129   ar
    30   156   159    1
    31   140   142   ar
    32   159   160    1
    33   128   126   ar
    34   128   127   ar
    35   129   126   ar
    36   126   124   ar
    37   127   125   ar
    38   160   161    1
    39   104   103    2
    40   161   162    1
    41    94    92   ar
    42   124   125   ar
    43   124   123    1
    44   108   110   ar
    45   108   106   ar
    46   122   121    2
    47   121   120    1
    48   110   109   ar
    49   103   102    1
    50    92    91    1
    51    92    93   ar
    52    86    84    1
    53   162   163    2
    54    91    88    1
    55   123   120    1
    56   106   105    1
    57   106   107   ar
    58   105   102    1
    59   120   119    1
    60    87    88    1
    61    85    84    1
    62   109   107   ar
    63    84    83    2
    64   102   101    1
    65   163   164    1
    66   163   165    1
    67    88    89    1
    68    68    66    1
    69   177   176    1
    70    67    66    1
    71   119   113   am
    72   101    97   am
    73    90    89    2
    74    83    82    1
    75    89    95   am
    76    66    65    1
    77   176   174   ar
    78   176   175   ar
    79    95    96    1
    80   174   172   ar
    81   113   114    2
    82   113   112    1
    83    97    96    1
    84    97    98    2
    85   175   173   ar
    86    82    81    1
    87    37    35   ar
    88    65    62    1
    89    96    99    1
    90   117   115    1
    91   172   171   ar
    92   169   168    2
    93   111   112    1
    94   173   171   ar
    95   112   115    1
    96   166   167    1
    97   115   116    1
    98    35    36   ar
    99    35    34    1
   100    81    80    1
   101   100    99    1
   102   171   170    1
   103    63    62    1
   104    63    64    2
   105    62    61    1
   106   168   167    1
   107    80    77    1
   108     6     7    1
   109     6     5    1
   110   167   170    1
   111     7     1    1
   112    34    33    1
   113    61    59   am
   114   116   118    1
   115     4     3    2
   116     5     2    1
   117     1     2    1
   118    77    76    1
   119    77    78    1
   120    59    58    1
   121    59    60    2
   122    33    30    1
   123    56    54    1
   124     3     2    1
   125     3     8   am
   126    30    31    1
   127    30    29    1
   128    76    71   am
   129    58    57    1
   130    78    79    2
   131    22    21    2
   132    31    32    2
   133     9     8    1
   134     9    12    1
   135     9    10    1
   136    12    13    1
   137    26    24   ar
   138    26    28   ar
   139    19    10   am
   140    19    20    1
   141    23    24    1
   142    23    20    1
   143    54    55    1
   144    54    53    2
   145    69    70    1
   146    71    70    1
   147    71    72    2
   148    21    20    1
   149    10    11    2
   150    24    25   ar
   151    73    70    1
   152    73    74    1
   153    73    75    1
   154    53    52    1
   155    28    27   ar
   156    45    43   ar
   157    13    15   ar
   158    13    14   ar
   159    25    27   ar
   160    15    17   ar
   161    43    42    1
   162    43    44   ar
   163    42    39    1
   164    14    16   ar
   165    52    51    1
   166    51    50    1
   167    17    18   ar
   168    16    18   ar
   169    41    40    2
   170    39    38    1
   171    39    40    1
   172    50    47    1
   173    48    49    2
   174    48    47    1
   175    47    46    1
