@<TRIPOS>MOLECULE
tmp/2d7iA02.pdb
 126 121 0 0 0
SMALL
GASTEIGER

@<TRIPOS>ATOM
      1  N         20.0820   46.3690   23.9650 N.3   150  LEU150     -0.1245
      2  CA        19.9210   45.0150   23.4480 C.3   150  LEU150      0.1561
      3  C         21.2410   44.2480   23.3430 C.2   150  LEU150      0.2260
      4  O         21.3100   43.0720   23.7010 O.2   150  LEU150     -0.2867
      5  CB        19.1860   45.0530   22.0980 C.3   150  LEU150      0.0270
      6  CG        19.9340   45.4300   20.8170 C.3   150  LEU150      0.0019
      7  CD1       20.5710   44.1780   20.2020 C.3   150  LEU150      0.0001
      8  CD2       18.9660   46.0410   19.8360 C.3   150  LEU150      0.0001
      9  N         21.8190   41.1170   25.5950 N.3   154  ARG154     -0.1245
     10  CA        21.9400   39.7700   25.0400 C.3   154  ARG154      0.1563
     11  C         23.1750   39.1130   25.6330 C.2   154  ARG154      0.2260
     12  O         23.2130   37.9010   25.8290 O.2   154  ARG154     -0.2867
     13  CB        22.0260   39.7940   23.5100 C.3   154  ARG154      0.0307
     14  CG        20.7180   40.1680   22.8610 C.3   154  ARG154      0.0489
     15  CD        20.4640   39.4410   21.5500 C.3   154  ARG154      0.2205
     16  NE        21.1490   40.0600   20.4300 N.pl3 154  ARG154     -0.0865
     17  CZ        20.5330   40.5320   19.3510 C.cat 154  ARG154      0.5346
     18  NH1       19.2150   40.4530   19.2510 N.pl3 154  ARG154      0.1354
     19  NH2       21.2360   41.0910   18.3740 N.pl3 154  ARG154      0.1354
     20  N         14.1080   37.7360   19.2450 N.3   170  ASP170     -0.1239
     21  CA        13.5400   38.9870   19.7200 C.3   170  ASP170      0.1674
     22  C         12.2820   38.6580   20.5190 C.2   170  ASP170      0.2266
     23  O         11.7280   37.5690   20.3900 O.2   170  ASP170     -0.2867
     24  CB        13.2210   39.9050   18.5560 C.3   170  ASP170      0.1410
     25  CG        14.3270   40.8830   18.2920 C.2   170  ASP170      0.3668
     26  OD1       15.4400   40.6990   18.8550 O.co2 170  ASP170     -0.2456
     27  OD2       14.0820   41.8390   17.5230 O.co2 170  ASP170     -0.2456
     28  N         13.4970   34.5890    8.5210 N.3   199  ILE199     -0.1245
     29  CA        12.7260   35.4630    9.3800 C.3   199  ILE199      0.1561
     30  C         11.4830   35.9210    8.6050 C.2   199  ILE199      0.2260
     31  O         11.5790   36.6350    7.6080 O.2   199  ILE199     -0.2867
     32  CB        13.5820   36.6530    9.8160 C.3   199  ILE199      0.0252
     33  CG1       14.8740   36.1280   10.4560 C.3   199  ILE199      0.0019
     34  CG2       12.7960   37.5260   10.7850 C.3   199  ILE199      0.0019
     35  CD1       15.9260   37.1810   10.6860 C.3   199  ILE199      0.0001
     36  N         20.8750   47.6030    6.5640 N.3   227  TYR227     -0.1241
     37  CA        20.7510   46.2070    6.1900 C.3   227  TYR227      0.1605
     38  C         19.9330   46.0400    4.9160 C.2   227  TYR227      0.2264
     39  O         18.8550   46.6250    4.7520 O.2   227  TYR227     -0.2867
     40  CB        20.1380   45.4090    7.3470 C.3   227  TYR227      0.0534
     41  CG        19.7450   43.9880    7.0060 C.ar  227  TYR227     -0.0201
     42  CD1       18.4150   43.6570    6.7590 C.ar  227  TYR227     -0.0009
     43  CD2       20.7020   42.9760    6.9270 C.ar  227  TYR227     -0.0009
     44  CE1       18.0430   42.3540    6.4440 C.ar  227  TYR227      0.0417
     45  CE2       20.3460   41.6640    6.6090 C.ar  227  TYR227      0.0417
     46  CZ        19.0150   41.3550    6.3690 C.ar  227  TYR227      0.1957
     47  OH        18.6480   40.0560    6.0640 O.3   227  TYR227     -0.2866
     48  N         20.4150   39.2680    9.8710 N.3   251  ALA251     -0.1231
     49  CA        19.5150   40.3670   10.1930 C.3   251  ALA251      0.1694
     50  C         19.9460   40.8540   11.5790 C.2   251  ALA251      0.2593
     51  O         19.9700   42.0640   11.8480 O.2   251  ALA251     -0.2718
     52  CB        18.0810   39.8720   10.2190 C.3   251  ALA251      0.0304
     53  N         20.2980   39.9040   12.4490 N.am  252  GLY252     -0.1942
     54  CA        20.7590   40.2610   13.7770 C.3   252  GLY252      0.2014
     55  C         20.0280   39.7030   14.9890 C.2   252  GLY252      0.2639
     56  O         20.6590   39.2950   15.9660 O.2   252  GLY252     -0.2714
     57  N         18.7020   39.6650   14.9380 N.am  253  GLY253     -0.1939
     58  CA        17.9440   39.1870   16.0850 C.3   253  GLY253      0.2014
     59  C         17.6660   37.7050   16.2740 C.2   253  GLY253      0.2638
     60  O         17.3570   37.2900   17.3830 O.2   253  GLY253     -0.2714
     61  N         17.7620   36.9030   15.2200 N.am  254  LEU254     -0.1977
     62  CA        17.4810   35.4730   15.3370 C.3   254  LEU254      0.1596
     63  C         18.6380   34.6430   14.8020 C.2   254  LEU254      0.2287
     64  O         18.9380   34.6830   13.6020 O.2   254  LEU254     -0.2864
     65  CB        16.2320   35.0950   14.5260 C.3   254  LEU254      0.0297
     66  CG        14.8010   35.6380   14.7000 C.3   254  LEU254      0.0022
     67  CD1       14.0830   34.8620   15.7660 C.3   254  LEU254      0.0001
     68  CD2       14.8100   37.1330   14.9980 C.3   254  LEU254      0.0001
     69  N         20.9510   50.0620   20.2020 N.3   275  TRP275     -0.1227
     70  CA        20.5260   49.3220   19.0370 C.3   275  TRP275      0.1737
     71  C         21.4800   49.5920   17.8690 C.2   275  TRP275      0.2596
     72  O         22.1250   50.6430   17.8180 O.2   275  TRP275     -0.2718
     73  CB        19.1010   49.7850   18.7100 C.3   275  TRP275      0.0564
     74  CG        18.4540   49.1670   17.5300 C.ar  275  TRP275      0.0003
     75  CD1       17.4940   48.1880   17.5350 C.ar  275  TRP275      0.0946
     76  CD2       18.6600   49.5200   16.1620 C.ar  275  TRP275      0.0152
     77  NE1       17.0850   47.9170   16.2480 N.ar  275  TRP275     -0.2442
     78  CE2       17.7850   48.7210   15.3850 C.ar  275  TRP275      0.0810
     79  CE3       19.4980   50.4350   15.5130 C.ar  275  TRP275      0.0012
     80  CZ2       17.7260   48.8140   13.9890 C.ar  275  TRP275      0.0191
     81  CZ3       19.4390   50.5250   14.1180 C.ar  275  TRP275      0.0001
     82  CH2       18.5570   49.7180   13.3750 C.ar  275  TRP275      0.0015
     83  N         21.5870   48.6240   16.9580 N.am  276  GLY276     -0.1957
     84  CA        22.4260   48.7770   15.7790 C.3   276  GLY276      0.1869
     85  C         23.8810   48.3390   15.8050 C.2   276  GLY276      0.2309
     86  O         24.5760   48.4860   16.8000 O.2   276  GLY276     -0.2863
     87  N         25.6270   45.4270   16.0710 N.3   278  GLU278     -0.1231
     88  CA        26.1280   44.1170   16.4670 C.3   278  GLU278      0.1699
     89  C         25.9870   43.0730   15.3690 C.2   278  GLU278      0.2592
     90  O         26.8060   42.1570   15.2950 O.2   278  GLU278     -0.2718
     91  CB        25.4500   43.5890   17.7350 C.3   278  GLU278      0.0402
     92  CG        24.2180   44.2930   18.1680 C.3   278  GLU278      0.1161
     93  CD        23.0800   44.1610   17.1960 C.2   278  GLU278      0.3649
     94  OE1       22.4980   43.0590   17.0660 O.co2 278  GLU278     -0.2457
     95  OE2       22.7680   45.1870   16.5600 O.co2 278  GLU278     -0.2457
     96  N         24.9610   43.2020   14.5240 N.am  279  GLN279     -0.1979
     97  CA        24.7620   42.2270   13.4700 C.3   279  GLN279      0.1601
     98  C         25.9570   42.2820   12.5170 C.2   279  GLN279      0.2287
     99  O         26.4200   41.2460   12.0260 O.2   279  GLN279     -0.2864
    100  CB        23.4270   42.4560   12.7310 C.3   279  GLN279      0.0394
    101  CG        23.4240   43.4960   11.6170 C.3   279  GLN279      0.0908
    102  CD        23.0620   44.8800   12.1060 C.2   279  GLN279      0.2608
    103  OE1       23.6460   45.3840   13.0680 O.2   279  GLN279     -0.2717
    104  NE2       22.0930   45.5100   11.4410 N.am  279  GLN279     -0.0878
    105  N          8.4980   37.3410   12.8600 N.3   303  HIS303     -0.1241
    106  CA         8.9990   38.4850   13.6140 C.3   303  HIS303      0.1621
    107  C          8.1340   39.6850   13.3010 C.2   303  HIS303      0.2264
    108  O          7.7490   39.8890   12.1570 O.2   303  HIS303     -0.2867
    109  CB        10.4490   38.7950   13.2320 C.3   303  HIS303      0.0745
    110  CG        10.9840   40.0450   13.8640 C.ar  303  HIS303      0.0817
    111  ND1       10.8850   41.2830   13.2660 N.ar  303  HIS303     -0.2268
    112  CD2       11.5610   40.2550   15.0720 C.ar  303  HIS303      0.1154
    113  CE1       11.3740   42.2020   14.0800 C.ar  303  HIS303      0.1986
    114  NE2       11.7890   41.6050   15.1830 N.ar  303  HIS303     -0.2212
    115  N          7.9330   43.3990   12.6710 N.3   305  TYR305     -0.1241
    116  CA         8.7400   44.5920   12.3910 C.3   305  TYR305      0.1605
    117  C          7.9520   45.8270   12.8410 C.2   305  TYR305      0.2264
    118  O          6.8040   46.0310   12.4480 O.2   305  TYR305     -0.2867
    119  CB         9.0700   44.6940   10.9030 C.3   305  TYR305      0.0534
    120  CG         9.9540   43.5730   10.4240 C.ar  305  TYR305     -0.0201
    121  CD1        9.4220   42.3110   10.1520 C.ar  305  TYR305     -0.0009
    122  CD2       11.3240   43.7600   10.2820 C.ar  305  TYR305     -0.0009
    123  CE1       10.2370   41.2690    9.7560 C.ar  305  TYR305      0.0417
    124  CE2       12.1420   42.7270    9.8860 C.ar  305  TYR305      0.0417
    125  CZ        11.6010   41.4830    9.6280 C.ar  305  TYR305      0.1957
    126  OH        12.4220   40.4340    9.2720 O.3   305  TYR305     -0.2866
@<TRIPOS>BOND
     1    39    38    2
     2    38    37    1
     3    47    46    1
     4    37    36    1
     5    37    40    1
     6    46    44   ar
     7    46    45   ar
     8    44    42   ar
     9    45    43   ar
    10    42    41   ar
    11    43    41   ar
    12    41    40    1
    13    31    30    2
    14    28    29    1
    15    30    29    1
    16   126   125    1
    17    29    32    1
    18   125   123   ar
    19   125   124   ar
    20   123   121   ar
    21    32    33    1
    22    32    34    1
    23    48    49    1
    24   124   122   ar
    25   121   120   ar
    26    49    52    1
    27    49    50    1
    28   122   120   ar
    29   120   119    1
    30    33    35    1
    31   119   116    1
    32   104   102   am
    33    50    51    2
    34    50    53   am
    35   101   102    1
    36   101   100    1
    37    99    98    2
    38   102   103    2
    39   108   107    2
    40   116   115    1
    41   116   117    1
    42   118   117    2
    43    53    54    1
    44    98    97    1
    45   100    97    1
    46   105   106    1
    47   109   106    1
    48   109   110    1
    49   111   110   ar
    50   111   113   ar
    51   107   106    1
    52    82    80   ar
    53    82    81   ar
    54    97    96    1
    55    64    63    2
    56    54    55    1
    57   110   112   ar
    58    80    78   ar
    59   113   114   ar
    60    81    79   ar
    61    96    89   am
    62    65    66    1
    63    65    62    1
    64    66    68    1
    65    66    67    1
    66    63    62    1
    67    57    55   am
    68    57    58    1
    69    55    56    2
    70   112   114   ar
    71    61    62    1
    72    61    59   am
    73    90    89    2
    74    89    88    1
    75    78    76   ar
    76    78    77   ar
    77    79    76   ar
    78    84    85    1
    79    84    83    1
    80    85    86    2
    81    87    88    1
    82    58    59    1
    83    76    74   ar
    84    77    75   ar
    85    59    60    2
    86    88    91    1
    87    95    93   ar
    88    83    71   am
    89    94    93   ar
    90    93    92    1
    91    27    25   ar
    92    74    75   ar
    93    74    73    1
    94    91    92    1
    95    72    71    2
    96    71    70    1
    97    25    24    1
    98    25    26   ar
    99    19    17    1
   100    24    21    1
   101    73    70    1
   102    70    69    1
   103    20    21    1
   104    18    17    1
   105    17    16    2
   106    21    22    1
   107     8     6    1
   108     7     6    1
   109    23    22    2
   110    16    15    1
   111     6     5    1
   112    15    14    1
   113     5     2    1
   114    14    13    1
   115     3     2    1
   116     3     4    2
   117     2     1    1
   118    13    10    1
   119    10     9    1
   120    10    11    1
   121    11    12    2
