@<TRIPOS>MOLECULE
tmp/2d81A01.pdb
 159 157 0 0 0
SMALL
GASTEIGER

@<TRIPOS>ATOM
      1  N         20.4000   -6.4520   18.7690 N.3    19  ALA19      -0.1231
      2  CA        19.5650   -6.7710   19.9230 C.3    19  ALA19       0.1694
      3  C         19.2200   -5.5200   20.7310 C.2    19  ALA19       0.2592
      4  O         18.5320   -4.6310   20.2260 O.2    19  ALA19      -0.2718
      5  CB        20.2670   -7.8030   20.7990 C.3    19  ALA19       0.0304
      6  N         19.6860   -5.4370   21.9750 N.am   20  SER20      -0.1952
      7  CA        19.4460   -4.2200   22.7460 C.3    20  SER20       0.1924
      8  C         20.1080   -3.0490   22.0240 C.2    20  SER20       0.2314
      9  O         19.6210   -1.9190   22.0780 O.2    20  SER20      -0.2863
     10  CB        19.9930   -4.3430   24.1810 C.3    20  SER20       0.2116
     11  OG        21.4090   -4.4690   24.2140 O.3    20  SER20      -0.2180
     12  N         17.6340   -2.2340   19.2310 N.3    23  TYR23      -0.1241
     13  CA        16.5860   -1.4010   19.8080 C.3    23  TYR23       0.1605
     14  C         17.0920    0.0330   19.9430 C.2    23  TYR23       0.2264
     15  O         16.4250    0.9700   19.5150 O.2    23  TYR23      -0.2867
     16  CB        16.1660   -1.9470   21.1800 C.3    23  TYR23       0.0534
     17  CG        15.0160   -2.9350   21.1300 C.ar   23  TYR23      -0.0201
     18  CD1       13.7130   -2.5000   20.8940 C.ar   23  TYR23      -0.0009
     19  CD2       15.2270   -4.3000   21.3230 C.ar   23  TYR23      -0.0009
     20  CE1       12.6430   -3.3970   20.8560 C.ar   23  TYR23       0.0417
     21  CE2       14.1600   -5.2120   21.2830 C.ar   23  TYR23       0.0417
     22  CZ        12.8740   -4.7480   21.0510 C.ar   23  TYR23       0.1957
     23  OH        11.8130   -5.6300   21.0150 O.3    23  TYR23      -0.2866
     24  N          8.5250   -5.8440   28.8090 N.3    56  TYR56      -0.1241
     25  CA         9.5870   -5.9490   27.8170 C.3    56  TYR56       0.1605
     26  C          9.7240   -7.3600   27.2410 C.2    56  TYR56       0.2264
     27  O         10.1560   -7.5240   26.1010 O.2    56  TYR56      -0.2867
     28  CB        10.9210   -5.4860   28.4200 C.3    56  TYR56       0.0534
     29  CG        11.5700   -6.4970   29.3340 C.ar   56  TYR56      -0.0201
     30  CD1       12.4240   -7.4750   28.8270 C.ar   56  TYR56      -0.0009
     31  CD2       11.3100   -6.4950   30.7030 C.ar   56  TYR56      -0.0009
     32  CE1       13.0020   -8.4290   29.6580 C.ar   56  TYR56       0.0417
     33  CE2       11.8830   -7.4450   31.5450 C.ar   56  TYR56       0.0417
     34  CZ        12.7260   -8.4070   31.0150 C.ar   56  TYR56       0.1957
     35  OH        13.2950   -9.3510   31.8380 O.3    56  TYR56      -0.2866
     36  N         10.0310   -9.7040   23.1880 N.3    60  MET60      -0.1245
     37  CA        11.0750  -10.7110   23.0370 C.3    60  MET60       0.1570
     38  C         10.4880  -12.0920   22.7640 C.2    60  MET60       0.2261
     39  O          9.2760  -12.2520   22.6460 O.2    60  MET60      -0.2867
     40  CB        11.9380  -10.7730   24.3010 C.3    60  MET60       0.0387
     41  CG        12.7330   -9.5110   24.5850 C.3    60  MET60       0.0595
     42  SD        13.6660   -9.6380   26.1340 S.3    60  MET60      -0.1393
     43  CE        14.8840  -10.8550   25.6800 C.3    60  MET60       0.0692
     44  N         15.0560  -15.4470   20.7130 N.3   103  THR103     -0.1203
     45  CA        15.3880  -14.5460   21.8070 C.3   103  THR103      0.1994
     46  C         14.7090  -13.1960   21.5900 C.2   103  THR103      0.2617
     47  O         14.0880  -12.6510   22.5020 O.2   103  THR103     -0.2717
     48  CB        16.9050  -14.3350   21.9010 C.3   103  THR103      0.1784
     49  OG1       17.5440  -15.5930   22.1550 O.3   103  THR103     -0.2211
     50  CG2       17.2380  -13.3580   23.0150 C.3   103  THR103      0.0376
     51  N         14.8400  -12.6560   20.3810 N.am  104  VAL104     -0.1979
     52  CA        14.0040  -11.5390   19.9530 C.3   104  VAL104      0.1595
     53  C         13.0500  -12.0420   18.8720 C.2   104  VAL104      0.2287
     54  O         11.8970  -12.3380   19.1630 O.2   104  VAL104     -0.2864
     55  CB        14.8590  -10.3640   19.4200 C.3   104  VAL104      0.0276
     56  CG1       13.9580   -9.2190   18.9700 C.3   104  VAL104      0.0022
     57  CG2       15.7970   -9.8760   20.5160 C.3   104  VAL104      0.0022
     58  N         19.8980  -15.8970   17.4620 N.3   135  HIS135     -0.1241
     59  CA        20.2330  -14.5910   18.0030 C.3   135  HIS135      0.1621
     60  C         21.7480  -14.4280   18.1340 C.2   135  HIS135      0.2264
     61  O         22.3550  -14.8850   19.1020 O.2   135  HIS135     -0.2867
     62  CB        19.5810  -14.4060   19.3690 C.3   135  HIS135      0.0745
     63  CG        19.5380  -12.9810   19.8160 C.ar  135  HIS135      0.0817
     64  ND1       18.7190  -12.0420   19.2240 N.ar  135  HIS135     -0.2268
     65  CD2       20.2380  -12.3230   20.7690 C.ar  135  HIS135      0.1154
     66  CE1       18.9190  -10.8670   19.7940 C.ar  135  HIS135      0.1986
     67  NE2       19.8360  -11.0110   20.7340 N.ar  135  HIS135     -0.2212
     68  N         23.5440   -6.8880   24.5350 N.3   230  CYS230     -0.1221
     69  CA        23.8140   -7.3000   25.9090 C.3   230  CYS230      0.1808
     70  C         24.9360   -8.3400   25.8950 C.2   230  CYS230      0.2601
     71  O         25.0590   -9.1140   24.9430 O.2   230  CYS230     -0.2717
     72  CB        22.5890   -7.9370   26.5520 C.3   230  CYS230      0.0970
     73  SG        20.9800   -7.0760   26.5230 S.3   230  CYS230     -0.0800
     74  N         25.7410   -8.3540   26.9540 N.am  231  LEU231     -0.1979
     75  CA        26.8440   -9.3000   27.0960 C.3   231  LEU231      0.1596
     76  C         27.9020   -9.1450   26.0070 C.2   231  LEU231      0.2287
     77  O         28.7260  -10.0420   25.7990 O.2   231  LEU231     -0.2864
     78  CB        26.3150  -10.7400   27.1070 C.3   231  LEU231      0.0297
     79  CG        25.4280  -11.1170   28.3020 C.3   231  LEU231      0.0022
     80  CD1       24.9120  -12.5370   28.1410 C.3   231  LEU231      0.0001
     81  CD2       26.2240  -10.9810   29.5910 C.3   231  LEU231      0.0001
     82  N         13.9390   -3.6860   37.5450 N.3   278  LEU278     -0.1231
     83  CA        14.8280   -4.5570   36.7910 C.3   278  LEU278      0.1693
     84  C         16.2670   -4.0560   36.9140 C.2   278  LEU278      0.2593
     85  O         16.5150   -2.8480   36.9370 O.2   278  LEU278     -0.2718
     86  CB        14.4070   -4.5730   35.3180 C.3   278  LEU278      0.0284
     87  CG        14.9360   -5.7210   34.4580 C.3   278  LEU278      0.0019
     88  CD1       14.2590   -7.0170   34.8820 C.3   278  LEU278      0.0001
     89  CD2       14.6620   -5.4400   32.9900 C.3   278  LEU278      0.0001
     90  N         17.2130   -4.9840   37.0020 N.am  279  SER279     -0.1938
     91  CA        18.6240   -4.6250   36.9760 C.3   279  SER279      0.2055
     92  C         19.1570   -4.7820   35.5550 C.2   279  SER279      0.2643
     93  O         18.4300   -5.2160   34.6590 O.2   279  SER279     -0.2714
     94  CB        19.4170   -5.5060   37.9490 C.3   279  SER279      0.2130
     95  OG        19.2190   -6.8840   37.6830 O.3   279  SER279     -0.2179
     96  N         20.4210   -4.4250   35.3500 N.am  280  ASN280     -0.1958
     97  CA        21.0330   -4.5000   34.0230 C.3   280  ASN280      0.1804
     98  C         22.3960   -5.1910   34.1100 C.2   280  ASN280      0.2463
     99  O         23.4090   -4.6610   33.6550 O.2   280  ASN280     -0.2730
    100  CB        21.1710   -3.0810   33.4580 C.3   280  ASN280      0.1195
    101  CG        21.7870   -3.0530   32.0750 C.2   280  ASN280      0.2630
    102  OD1       21.7260   -4.0300   31.3270 O.2   280  ASN280     -0.2716
    103  ND2       22.3660   -1.9150   31.7190 N.am  280  ASN280     -0.0877
    104  N         22.4280   -6.4030   34.6840 N.am  281  PRO281     -0.2716
    105  CA        23.6640   -7.1750   34.8420 C.3   281  PRO281      0.1536
    106  C         24.3790   -7.5410   33.5440 C.2   281  PRO281      0.2598
    107  O         25.5740   -7.8320   33.5570 O.2   281  PRO281     -0.2715
    108  CB        23.1980   -8.4090   35.6080 C.3   281  PRO281      0.0310
    109  CG        21.8200   -8.6200   35.0690 C.3   281  PRO281      0.0237
    110  CD        21.2600   -7.2110   35.0810 C.3   281  PRO281      0.0939
    111  N         23.6490   -7.5280   32.4320 N.am  282  ASN282     -0.1973
    112  CA        24.2080   -7.9390   31.1460 C.3   282  ASN282      0.1688
    113  C         24.8170   -6.7800   30.3530 C.2   282  ASN282      0.2292
    114  O         25.4080   -6.9900   29.2930 O.2   282  ASN282     -0.2864
    115  CB        23.1290   -8.6290   30.3080 C.3   282  ASN282      0.1181
    116  CG        22.6800   -9.9550   30.9080 C.2   282  ASN282      0.2629
    117  OD1       21.6370  -10.4950   30.5410 O.2   282  ASN282     -0.2716
    118  ND2       23.4730  -10.4870   31.8290 N.am  282  ASN282     -0.0877
    119  N         23.2910   -4.0780   28.8780 N.3   284  CYS284     -0.1235
    120  CA        22.4920   -3.7910   27.6930 C.3   284  CYS284      0.1677
    121  C         22.3300   -2.2860   27.5150 C.2   284  CYS284      0.2270
    122  O         22.4340   -1.5320   28.4790 O.2   284  CYS284     -0.2867
    123  CB        21.0930   -4.3590   27.8430 C.3   284  CYS284      0.0956
    124  SG        20.8720   -6.1020   28.3020 S.3   284  CYS284     -0.0801
    125  N         16.5850    0.1990   26.4940 N.3   287  TRP287     -0.1227
    126  CA        15.3360    0.2560   25.7380 C.3   287  TRP287      0.1737
    127  C         14.1230   -0.0780   26.6140 C.2   287  TRP287      0.2595
    128  O         13.0320   -0.3540   26.1040 O.2   287  TRP287     -0.2718
    129  CB        15.3890   -0.7050   24.5410 C.3   287  TRP287      0.0564
    130  CG        15.5490   -2.1570   24.9060 C.ar  287  TRP287      0.0003
    131  CD1       16.6860   -2.7760   25.3470 C.ar  287  TRP287      0.0946
    132  CD2       14.5310   -3.1660   24.8700 C.ar  287  TRP287      0.0152
    133  NE1       16.4380   -4.1090   25.5850 N.ar  287  TRP287     -0.2442
    134  CE2       15.1230   -4.3740   25.3020 C.ar  287  TRP287      0.0810
    135  CE3       13.1750   -3.1660   24.5140 C.ar  287  TRP287      0.0012
    136  CZ2       14.4060   -5.5710   25.3890 C.ar  287  TRP287      0.0191
    137  CZ3       12.4600   -4.3580   24.6020 C.ar  287  TRP287      0.0001
    138  CH2       13.0800   -5.5440   25.0360 C.ar  287  TRP287      0.0015
    139  N         14.3050   -0.0390   27.9310 N.am  288  VAL288     -0.1980
    140  CA        13.2280   -0.4160   28.8490 C.3   288  VAL288      0.1595
    141  C         12.9670    0.6210   29.9360 C.2   288  VAL288      0.2287
    142  O         11.9710    0.5310   30.6600 O.2   288  VAL288     -0.2864
    143  CB        13.5190   -1.7730   29.5280 C.3   288  VAL288      0.0276
    144  CG1       13.6330   -2.8580   28.4740 C.3   288  VAL288      0.0022
    145  CG2       14.7990   -1.6850   30.3550 C.3   288  VAL288      0.0022
    146  N         15.5810    1.8020   32.2470 N.3   290  TRP290     -0.1241
    147  CA        16.4730    1.7100   33.4030 C.3   290  TRP290      0.1605
    148  C         16.8910    3.0890   33.9060 C.2   290  TRP290      0.2264
    149  O         16.8630    3.3640   35.1060 O.2   290  TRP290     -0.2867
    150  CB        17.7430    0.9260   33.0570 C.3   290  TRP290      0.0550
    151  CG        17.5880   -0.5570   33.0060 C.ar  290  TRP290      0.0003
    152  CD1       17.1490   -1.3750   34.0080 C.ar  290  TRP290      0.0946
    153  CD2       17.9320   -1.4100   31.9130 C.ar  290  TRP290      0.0152
    154  NE1       17.2040   -2.6900   33.6060 N.ar  290  TRP290     -0.2442
    155  CE2       17.6810   -2.7390   32.3220 C.ar  290  TRP290      0.0810
    156  CE3       18.4310   -1.1810   30.6240 C.ar  290  TRP290      0.0012
    157  CZ2       17.9110   -3.8350   31.4870 C.ar  290  TRP290      0.0191
    158  CZ3       18.6610   -2.2710   29.7920 C.ar  290  TRP290      0.0001
    159  CH2       18.3990   -3.5830   30.2280 C.ar  290  TRP290      0.0015
@<TRIPOS>BOND
     1    58    59    1
     2    59    60    1
     3    59    62    1
     4    60    61    2
     5     1     2    1
     6    53    54    2
     7    53    52    1
     8    56    55    1
     9    64    66   ar
    10    64    63   ar
    11    12    13    1
    12    62    63    1
    13    55    52    1
    14    55    57    1
    15    15    14    2
    16    66    67   ar
    17    13    14    1
    18    13    16    1
    19    63    65   ar
    20     2     3    1
    21     2     5    1
    22    52    51    1
    23     4     3    2
    24    51    46   am
    25    44    45    1
    26     3     6   am
    27    67    65   ar
    28    20    18   ar
    29    20    22   ar
    30    18    17   ar
    31    23    22    1
    32    22    21   ar
    33    17    16    1
    34    17    19   ar
    35    21    19   ar
    36    46    45    1
    37    46    47    2
    38    45    48    1
    39    48    49    1
    40    48    50    1
    41     6     7    1
    42     8     9    2
    43     8     7    1
    44    39    38    2
    45     7    10    1
    46    38    37    1
    47    37    36    1
    48    37    40    1
    49    10    11    1
    50    40    41    1
    51   135   137   ar
    52   135   132   ar
    53    68    69    1
    54   129   130    1
    55   129   126    1
    56    41    42    1
    57   137   138   ar
    58   132   130   ar
    59   132   134   ar
    60   130   131   ar
    61    71    70    2
    62   138   136   ar
    63   134   136   ar
    64   134   133   ar
    65   131   133   ar
    66    43    42    1
    67   126   125    1
    68   126   127    1
    69    77    76    2
    70    70    69    1
    71    70    74   am
    72    69    72    1
    73    76    75    1
    74    27    26    2
    75   128   127    2
    76    73    72    1
    77    73   124    1
    78   127   139   am
    79    74    75    1
    80    75    78    1
    81    78    79    1
    82    26    25    1
    83   121   120    1
    84   121   122    2
    85   120   123    1
    86   120   119    1
    87    25    28    1
    88    25    24    1
    89   123   124    1
    90   139   140    1
    91    80    79    1
    92    79    81    1
    93    28    29    1
    94   144   143    1
    95    30    29   ar
    96    30    32   ar
    97   140   143    1
    98   140   141    1
    99   114   113    2
   100    29    31   ar
   101   143   145    1
   102    32    34   ar
   103   158   159   ar
   104   158   156   ar
   105   141   142    2
   106   159   157   ar
   107   115   116    1
   108   115   112    1
   109   113   112    1
   110   117   116    2
   111   156   153   ar
   112    31    33   ar
   113   116   118   am
   114    34    33   ar
   115    34    35    1
   116   112   111    1
   117   102   101    2
   118   157   155   ar
   119   103   101   am
   120   153   155   ar
   121   153   151   ar
   122   101   100    1
   123   146   147    1
   124   155   154   ar
   125   111   106   am
   126    89    87    1
   127   151   150    1
   128   151   152   ar
   129   150   147    1
   130   147   148    1
   131   100    97    1
   132   106   107    2
   133   106   105    1
   134   154   152   ar
   135    99    98    2
   136   148   149    2
   137    97    98    1
   138    97    96    1
   139    98   104   am
   140    87    88    1
   141    87    86    1
   142    93    92    2
   143   104   105    1
   144   104   110    1
   145   105   108    1
   146   109   110    1
   147   109   108    1
   148    86    83    1
   149    96    92   am
   150    92    91    1
   151    83    84    1
   152    83    82    1
   153    84    85    2
   154    84    90   am
   155    91    90    1
   156    91    94    1
   157    95    94    1
