@<TRIPOS>MOLECULE
tmp/2d82A00.pdb
 84 81 0 0 0
SMALL
GASTEIGER

@<TRIPOS>ATOM
      1  N         -4.5270   10.4590    4.0660 N.3    34  PRO34      -0.2102
      2  CA        -4.8130   10.6070    2.6230 C.3    34  PRO34       0.1504
      3  C         -4.4720    9.3100    1.8890 C.2    34  PRO34       0.2575
      4  O         -4.7700    9.1490    0.7220 O.2    34  PRO34      -0.2718
      5  CB        -3.8800   11.7300    2.1820 C.3    34  PRO34       0.0282
      6  CG        -2.7480   11.6970    3.1560 C.3    34  PRO34       0.0208
      7  CD        -3.2930   11.1630    4.4550 C.3    34  PRO34       0.0893
      8  N         -3.8430    8.3820    2.5630 N.am   35  PHE35      -0.1977
      9  CA        -3.4710    7.1060    1.8930 C.3    35  PHE35       0.1639
     10  C         -4.6600    6.1410    1.8600 C.2    35  PHE35       0.2290
     11  O         -4.6580    5.1720    1.1290 O.2    35  PHE35      -0.2864
     12  CB        -2.3420    6.5280    2.7590 C.3    35  PHE35       0.0560
     13  CG        -1.0410    7.2990    2.5690 C.ar   35  PHE35      -0.0200
     14  CD1       -1.0080    8.5190    1.8690 C.ar   35  PHE35      -0.0042
     15  CD2        0.1390    6.7890    3.1230 C.ar   35  PHE35      -0.0042
     16  CE1        0.2010    9.2090    1.7170 C.ar   35  PHE35      -0.0003
     17  CE2        1.3460    7.4810    2.9710 C.ar   35  PHE35      -0.0003
     18  CZ         1.3770    8.6900    2.2690 C.ar   35  PHE35      -0.0000
     19  N         -7.8160    7.1000    1.1420 N.3    37  GLN37      -0.1231
     20  CA        -8.8650    7.5870    0.2020 C.3    37  GLN37       0.1683
     21  C         -8.2260    8.0840   -1.1030 C.2    37  GLN37       0.2434
     22  O         -7.1860    8.7120   -1.0770 O.2    37  GLN37      -0.2733
     23  CB        -9.5540    8.7390    0.9430 C.3    37  GLN37       0.0380
     24  CG        -8.5670    9.8930    1.1500 C.3    37  GLN37       0.0905
     25  CD        -9.1030   10.8360    2.2290 C.2    37  GLN37       0.2608
     26  OE1       -9.7470   11.8220    1.9270 O.2    37  GLN37      -0.2717
     27  NE2       -8.8600   10.5750    3.4840 N.am   37  GLN37      -0.0878
     28  N         -8.8680    7.7880   -2.2090 N.am   38  PRO38      -0.2718
     29  CA        -8.3340    8.2170   -3.5250 C.3    38  PRO38       0.1535
     30  C         -8.1540    9.7360   -3.5620 C.2    38  PRO38       0.2598
     31  O         -8.4600   10.4310   -2.6140 O.2    38  PRO38      -0.2715
     32  CB        -9.4090    7.7800   -4.5220 C.3    38  PRO38       0.0310
     33  CG       -10.2120    6.7370   -3.8120 C.3    38  PRO38       0.0237
     34  CD       -10.1240    7.0360   -2.3410 C.3    38  PRO38       0.0939
     35  N         -7.6580   10.2560   -4.6510 N.am   39  VAL39      -0.1978
     36  CA        -7.4590   11.7290   -4.7500 C.3    39  VAL39       0.1596
     37  C         -8.4800   12.3350   -5.7170 C.2    39  VAL39       0.2287
     38  O         -8.9560   13.4350   -5.5230 O.2    39  VAL39      -0.2864
     39  CB        -6.0320   11.8920   -5.2880 C.3    39  VAL39       0.0276
     40  CG1       -5.7660   13.3620   -5.6270 C.3    39  VAL39       0.0022
     41  CG2       -5.0350   11.4280   -4.2230 C.3    39  VAL39       0.0022
     42  N        -10.7360   17.0110   -6.9720 N.3    44  LEU44      -0.1245
     43  CA        -9.6310   17.8800   -6.4870 C.3    44  LEU44       0.1561
     44  C         -9.4330   19.0350   -7.4640 C.2    44  LEU44       0.2260
     45  O         -9.2310   20.1680   -7.0750 O.2    44  LEU44      -0.2867
     46  CB        -8.4010   16.9810   -6.4810 C.3    44  LEU44       0.0270
     47  CG        -7.8300   16.9140   -5.0730 C.3    44  LEU44       0.0019
     48  CD1       -8.4860   15.7670   -4.3030 C.3    44  LEU44       0.0001
     49  CD2       -6.3240   16.6840   -5.1680 C.3    44  LEU44       0.0001
     50  N         -7.0330   19.0900   -9.9360 N.3    46  ILE46      -0.1245
     51  CA        -5.5740   19.2990  -10.1580 C.3    46  ILE46       0.1561
     52  C         -4.9940   18.1610  -11.0080 C.2    46  ILE46       0.2260
     53  O         -4.3970   17.2420  -10.4830 O.2    46  ILE46      -0.2867
     54  CB        -4.9560   19.2910   -8.7570 C.3    46  ILE46       0.0252
     55  CG1       -3.4380   19.4540   -8.8680 C.3    46  ILE46       0.0019
     56  CG2       -5.2760   17.9660   -8.0610 C.3    46  ILE46       0.0019
     57  CD1       -3.1130   20.8430   -9.4200 C.3    46  ILE46       0.0001
     58  N         -1.5340   14.6090  -10.3290 N.3    49  TYR49      -0.1241
     59  CA        -1.2460   13.4280   -9.4650 C.3    49  TYR49       0.1605
     60  C         -1.5370   12.1280  -10.2190 C.2    49  TYR49       0.2264
     61  O         -1.0710   11.0690   -9.8490 O.2    49  TYR49      -0.2867
     62  CB        -2.1940   13.5750   -8.2740 C.3    49  TYR49       0.0534
     63  CG        -1.5670   12.9450   -7.0520 C.ar   49  TYR49      -0.0201
     64  CD1       -0.6680   13.6800   -6.2700 C.ar   49  TYR49      -0.0009
     65  CD2       -1.8830   11.6270   -6.7030 C.ar   49  TYR49      -0.0009
     66  CE1       -0.0870   13.0970   -5.1370 C.ar   49  TYR49       0.0417
     67  CE2       -1.3020   11.0450   -5.5700 C.ar   49  TYR49       0.0417
     68  CZ        -0.4050   11.7800   -4.7880 C.ar   49  TYR49       0.1957
     69  OH         0.1680   11.2050   -3.6720 O.3    49  TYR49      -0.2866
     70  N          5.9110   13.1500   -4.8340 N.3    92  ASN92      -0.1240
     71  CA         6.2000   14.0910   -3.7160 C.3    92  ASN92       0.1653
     72  C          7.7040   14.3320   -3.5780 C.2    92  ASN92       0.2266
     73  O          8.1320   15.3410   -3.0530 O.2    92  ASN92      -0.2867
     74  CB         5.6660   13.3910   -2.4670 C.3    92  ASN92       0.1155
     75  CG         4.1770   13.0890   -2.6460 C.2    92  ASN92       0.2627
     76  OD1        3.4560   13.8620   -3.2460 O.2    92  ASN92      -0.2716
     77  ND2        3.6820   11.9880   -2.1480 N.am   92  ASN92      -0.0877
     78  N          4.7120   14.6590    2.9540 N.3    98  VAL98      -0.1245
     79  CA         4.0480   13.3800    2.5830 C.3    98  VAL98       0.1561
     80  C          5.1050   12.3130    2.3040 C.2    98  VAL98       0.2260
     81  O          4.9750   11.1800    2.7160 O.2    98  VAL98      -0.2867
     82  CB         3.2390   13.6960    1.3220 C.3    98  VAL98       0.0252
     83  CG1        2.2850   14.8560    1.6100 C.3    98  VAL98       0.0019
     84  CG2        4.1810   14.0850    0.1820 C.3    98  VAL98       0.0019
@<TRIPOS>BOND
     1    52    53    2
     2    52    51    1
     3    58    59    1
     4    60    61    2
     5    60    59    1
     6    51    50    1
     7    51    54    1
     8    59    62    1
     9    57    55    1
    10    55    54    1
    11    54    56    1
    12    62    63    1
    13    44    45    2
    14    44    43    1
    15    63    65   ar
    16    63    64   ar
    17    42    43    1
    18    65    67   ar
    19    43    46    1
    20    46    47    1
    21    64    66   ar
    22    37    38    2
    23    37    36    1
    24    40    39    1
    25    67    68   ar
    26    39    36    1
    27    39    41    1
    28    49    47    1
    29    66    68   ar
    30    47    48    1
    31    70    71    1
    32    68    69    1
    33    36    35    1
    34    35    30   am
    35    32    33    1
    36    32    29    1
    37    33    34    1
    38    71    72    1
    39    71    74    1
    40    72    73    2
    41    30    29    1
    42    30    31    2
    43    29    28    1
    44    76    75    2
    45    75    74    1
    46    75    77   am
    47    34    28    1
    48    28    21   am
    49    21    22    2
    50    21    20    1
    51    84    82    1
    52    20    23    1
    53    20    19    1
    54     4     3    2
    55    23    24    1
    56    11    10    2
    57    24    25    1
    58    82    83    1
    59    82    79    1
    60    16    14   ar
    61    16    18   ar
    62    10     9    1
    63    14    13   ar
    64     3     8   am
    65     3     2    1
    66     9     8    1
    67     9    12    1
    68    26    25    2
    69     5     2    1
    70     5     6    1
    71    25    27   am
    72    18    17   ar
    73    80    79    1
    74    80    81    2
    75    13    12    1
    76    13    15   ar
    77    79    78    1
    78     2     1    1
    79    17    15   ar
    80     6     7    1
    81     1     7    1
