@<TRIPOS>MOLECULE
tmp/2d8lA00.pdb
 143 142 0 0 0
SMALL
GASTEIGER

@<TRIPOS>ATOM
      1  N         24.7230   43.0880   -0.7110 N.3    28  ARG28      -0.1245
      2  CA        23.7000   42.7110   -1.6890 C.3    28  ARG28       0.1563
      3  C         22.3190   42.9730   -1.1100 C.2    28  ARG28       0.2260
      4  O         22.1230   42.6700    0.0690 O.2    28  ARG28      -0.2867
      5  CB        23.7690   41.2270   -2.0000 C.3    28  ARG28       0.0307
      6  CG        24.7060   40.7120   -3.0590 C.3    28  ARG28       0.0489
      7  CD        24.1760   39.3820   -3.6140 C.3    28  ARG28       0.2205
      8  NE        22.8050   39.4820   -4.1200 N.pl3  28  ARG28      -0.0865
      9  CZ        21.8970   38.5340   -4.3010 C.cat  28  ARG28       0.5346
     10  NH1       20.6990   38.8550   -4.7780 N.pl3  28  ARG28       0.1354
     11  NH2       22.1290   37.2530   -4.0230 N.pl3  28  ARG28       0.1354
     12  N         18.8910   41.5630   -0.8510 N.3    30  HIS30      -0.1226
     13  CA        18.4080   40.1940   -1.0650 C.3    30  HIS30       0.1752
     14  C         17.4210   39.8060    0.0390 C.2    30  HIS30       0.2596
     15  O         17.3720   40.5080    1.0560 O.2    30  HIS30      -0.2718
     16  CB        19.5890   39.2370   -1.0550 C.3    30  HIS30       0.0759
     17  CG        19.2730   37.8350   -1.4520 C.ar   30  HIS30       0.0818
     18  ND1       18.4090   37.4910   -2.4740 N.ar   30  HIS30      -0.2268
     19  CD2       19.7350   36.6730   -0.9230 C.ar   30  HIS30       0.1154
     20  CE1       18.3630   36.1690   -2.5510 C.ar   30  HIS30       0.1986
     21  NE2       19.1650   35.6430   -1.6100 N.ar   30  HIS30      -0.2212
     22  N         16.6890   38.7100   -0.1500 N.am   31  TYR31      -0.1962
     23  CA        15.6310   38.4260    0.8230 C.3    31  TYR31       0.1771
     24  C         16.1700   37.8970    2.1550 C.2    31  TYR31       0.2619
     25  O         15.3750   37.9550    3.1120 O.2    31  TYR31      -0.2715
     26  CB        14.5960   37.4520    0.2970 C.3    31  TYR31       0.0574
     27  CG        14.8510   35.9740    0.3250 C.ar   31  TYR31      -0.0198
     28  CD1       14.4980   35.1860    1.4030 C.ar   31  TYR31      -0.0009
     29  CD2       15.4530   35.3580   -0.7860 C.ar   31  TYR31      -0.0009
     30  CE1       14.7260   33.8220    1.4310 C.ar   31  TYR31       0.0417
     31  CE2       15.6750   33.9820   -0.7730 C.ar   31  TYR31       0.0417
     32  CZ        15.3130   33.2230    0.3270 C.ar   31  TYR31       0.1957
     33  OH        15.5330   31.8670    0.3560 O.3    31  TYR31      -0.2866
     34  N         17.3810   37.3750    2.1580 N.am   32  HIS32      -0.1973
     35  CA        17.9480   36.8980    3.4230 C.3    32  HIS32       0.1656
     36  C         17.9460   38.0420    4.4240 C.2    32  HIS32       0.2291
     37  O         17.3630   37.9190    5.4980 O.2    32  HIS32      -0.2864
     38  CB        19.3820   36.4020    3.2440 C.3    32  HIS32       0.0771
     39  CG        19.5080   35.1540    2.4380 C.ar   32  HIS32       0.0820
     40  ND1       18.4800   34.6200    1.6950 N.ar   32  HIS32      -0.2267
     41  CD2       20.5790   34.3440    2.2510 C.ar   32  HIS32       0.1154
     42  CE1       18.9220   33.5200    1.0880 C.ar   32  HIS32       0.1986
     43  NE2       20.1910   33.3320    1.4100 N.ar   32  HIS32      -0.2212
     44  N         13.0530   37.0660   -5.8010 N.3    78  ASP78      -0.1239
     45  CA        13.8270   37.1720   -4.5630 C.3    78  ASP78       0.1674
     46  C         14.2910   38.5870   -4.2830 C.2    78  ASP78       0.2266
     47  O         14.5030   38.9330   -3.1150 O.2    78  ASP78      -0.2867
     48  CB        15.0670   36.2860   -4.6090 C.3    78  ASP78       0.1410
     49  CG        14.7960   34.8040   -4.4600 C.2    78  ASP78       0.3668
     50  OD1       15.8070   34.0630   -4.3610 O.co2  78  ASP78      -0.2456
     51  OD2       13.6380   34.3400   -4.4270 O.co2  78  ASP78      -0.2456
     52  N         10.0180   32.0490  -11.4000 N.3   122  HIS122     -0.1226
     53  CA        10.7580   32.3820  -10.1710 C.3   122  HIS122      0.1752
     54  C         11.9680   33.2300  -10.4580 C.2   122  HIS122      0.2595
     55  O         12.2650   34.2200   -9.7730 O.2   122  HIS122     -0.2718
     56  CB        11.1400   31.0840   -9.4500 C.3   122  HIS122      0.0759
     57  CG        11.6890   31.3110   -8.0670 C.ar  122  HIS122      0.0818
     58  ND1       10.9300   31.8750   -7.0580 N.ar  122  HIS122     -0.2268
     59  CD2       12.8960   31.0160   -7.5160 C.ar  122  HIS122      0.1154
     60  CE1       11.6650   31.9370   -5.9520 C.ar  122  HIS122      0.1986
     61  NE2       12.8640   31.4230   -6.2040 N.ar  122  HIS122     -0.2212
     62  N         12.7440   32.9050  -11.4840 N.am  123  LYS123     -0.1980
     63  CA        13.8270   33.7110  -12.0110 C.3   123  LYS123      0.1596
     64  C         13.9240   33.5020  -13.5300 C.2   123  LYS123      0.2287
     65  O         13.3220   32.5420  -14.0300 O.2   123  LYS123     -0.2864
     66  CB        15.1750   33.3130  -11.4230 C.3   123  LYS123      0.0298
     67  CG        15.3240   33.3710   -9.9060 C.3   123  LYS123      0.0038
     68  CD        16.7580   33.1050   -9.4640 C.3   123  LYS123      0.0206
     69  CE        16.8130   33.0960   -7.9380 C.3   123  LYS123      0.1093
     70  NZ        18.2480   33.0400   -7.4880 N.3   123  LYS123     -0.1314
     71  N         15.0150   30.0350  -14.2120 N.3   126  TYR126     -0.1241
     72  CA        14.0660   28.9840  -13.8780 C.3   126  TYR126      0.1605
     73  C         12.8380   29.1620  -14.7700 C.2   126  TYR126      0.2264
     74  O         11.7170   29.4180  -14.2850 O.2   126  TYR126     -0.2867
     75  CB        13.6390   29.0130  -12.4020 C.3   126  TYR126      0.0534
     76  CG        14.7640   28.8630  -11.3950 C.ar  126  TYR126     -0.0201
     77  CD1       15.6090   27.7530  -11.4620 C.ar  126  TYR126     -0.0009
     78  CD2       15.0000   29.8070  -10.3990 C.ar  126  TYR126     -0.0009
     79  CE1       16.6590   27.5690  -10.5660 C.ar  126  TYR126      0.0417
     80  CE2       16.0350   29.6440   -9.4930 C.ar  126  TYR126      0.0417
     81  CZ        16.8520   28.5310   -9.5840 C.ar  126  TYR126      0.1957
     82  OH        17.9010   28.3220   -8.7080 O.3   126  TYR126     -0.2866
     83  N          7.7240   28.7140   -7.8600 N.3   131  TRP131     -0.1241
     84  CA         8.1160   28.0670   -6.6080 C.3   131  TRP131      0.1605
     85  C          7.2880   28.7060   -5.4920 C.2   131  TRP131      0.2264
     86  O          7.1090   29.9250   -5.5580 O.2   131  TRP131     -0.2867
     87  CB         9.5770   28.2520   -6.2380 C.3   131  TRP131      0.0550
     88  CG        10.6380   27.7500   -7.1650 C.ar  131  TRP131      0.0003
     89  CD1       10.4790   27.2520   -8.4290 C.ar  131  TRP131      0.0946
     90  CD2       12.0470   27.7020   -6.8830 C.ar  131  TRP131      0.0152
     91  NE1       11.7140   26.9010   -8.9350 N.ar  131  TRP131     -0.2442
     92  CE2       12.6920   27.1640   -8.0210 C.ar  131  TRP131      0.0810
     93  CE3       12.8310   28.0660   -5.7820 C.ar  131  TRP131      0.0012
     94  CZ2       14.0730   26.9770   -8.0940 C.ar  131  TRP131      0.0191
     95  CZ3       14.2000   27.8830   -5.8480 C.ar  131  TRP131      0.0001
     96  CH2       14.8160   27.3460   -6.9930 C.ar  131  TRP131      0.0015
     97  N         19.8670   25.6090    4.8140 N.3   321  VAL321     -0.1231
     98  CA        20.4750   26.6630    3.9790 C.3   321  VAL321      0.1692
     99  C         19.6180   26.9430    2.7500 C.2   321  VAL321      0.2593
    100  O         18.6270   26.2380    2.5250 O.2   321  VAL321     -0.2718
    101  CB        21.9040   26.2570    3.5700 C.3   321  VAL321      0.0266
    102  CG1       22.7600   26.0730    4.8250 C.3   321  VAL321      0.0020
    103  CG2       21.9190   24.9760    2.7620 C.3   321  VAL321      0.0020
    104  N         19.9740   27.9710    1.9640 N.am  322  GLY322     -0.1942
    105  CA        19.2060   28.2750    0.7500 C.3   322  GLY322      0.2014
    106  C         19.1070   27.0160   -0.1110 C.2   322  GLY322      0.2640
    107  O         20.1160   26.3260   -0.2930 O.2   322  GLY322     -0.2714
    108  N         17.9160   26.7030   -0.6020 N.am  323  THR323     -0.1936
    109  CA        17.5970   25.4020   -1.1900 C.3   323  THR323      0.2028
    110  C         16.7200   25.5640   -2.4190 C.2   323  THR323      0.2642
    111  O         15.8250   26.4150   -2.3820 O.2   323  THR323     -0.2714
    112  CB        16.8880   24.5160   -0.1400 C.3   323  THR323      0.1808
    113  OG1       17.8990   24.1170    0.8250 O.3   323  THR323     -0.2208
    114  CG2       16.2630   23.2710   -0.7110 C.3   323  THR323      0.0379
    115  N         16.9620   24.7960   -3.4740 N.am  324  SER324     -0.1949
    116  CA        16.1400   24.9170   -4.6680 C.3   324  SER324      0.1924
    117  C         15.0910   23.8220   -4.7540 C.2   324  SER324      0.2314
    118  O         14.9940   22.9320   -3.9090 O.2   324  SER324     -0.2863
    119  CB        17.0690   24.8870   -5.9060 C.3   324  SER324      0.2116
    120  OG        17.9990   25.9680   -5.8100 O.3   324  SER324     -0.2180
    121  N         17.7660   15.2470   -2.2140 N.3   330  TYR330     -0.1241
    122  CA        18.4080   16.5680   -2.1840 C.3   330  TYR330      0.1605
    123  C         17.9660   17.3570   -0.9620 C.2   330  TYR330      0.2264
    124  O         18.7320   17.9580   -0.2160 O.2   330  TYR330     -0.2867
    125  CB        18.0180   17.2740   -3.4840 C.3   330  TYR330      0.0534
    126  CG        18.2970   18.7650   -3.4970 C.ar  330  TYR330     -0.0201
    127  CD1       19.5520   19.2650   -3.7990 C.ar  330  TYR330     -0.0009
    128  CD2       17.2810   19.6730   -3.2060 C.ar  330  TYR330     -0.0009
    129  CE1       19.8100   20.6180   -3.8160 C.ar  330  TYR330      0.0417
    130  CE2       17.5230   21.0300   -3.2130 C.ar  330  TYR330      0.0417
    131  CZ        18.7810   21.4900   -3.5220 C.ar  330  TYR330      0.1957
    132  OH        19.0170   22.8470   -3.5180 O.3   330  TYR330     -0.2866
    133  N         20.3250   18.7580    2.5170 N.3   334  ARG334     -0.1245
    134  CA        20.7250   20.1590    2.6740 C.3   334  ARG334      0.1563
    135  C         21.4330   20.4180    3.9980 C.2   334  ARG334      0.2260
    136  O         21.0770   19.8300    5.0240 O.2   334  ARG334     -0.2867
    137  CB        19.5230   21.1110    2.6140 C.3   334  ARG334      0.0307
    138  CG        18.6460   21.0560    1.3810 C.3   334  ARG334      0.0489
    139  CD        19.5090   21.0750    0.1080 C.3   334  ARG334      0.2205
    140  NE        20.0760   22.3990   -0.1520 N.pl3 334  ARG334     -0.0865
    141  CZ        21.1780   22.6060   -0.8860 C.cat 334  ARG334      0.5346
    142  NH1       21.8460   21.5820   -1.4370 N.pl3 334  ARG334      0.1354
    143  NH2       21.6140   23.8610   -1.0670 N.pl3 334  ARG334      0.1354
@<TRIPOS>BOND
     1    73    74    2
     2    73    72    1
     3    71    72    1
     4    65    64    2
     5    72    75    1
     6    64    63    1
     7    75    76    1
     8    63    62    1
     9    63    66    1
    10    62    54   am
    11    77    76   ar
    12    77    79   ar
    13    66    67    1
    14    52    53    1
    15    76    78   ar
    16    79    81   ar
    17    54    53    1
    18    54    55    2
    19    78    80   ar
    20    53    56    1
    21    67    68    1
    22    81    80   ar
    23    81    82    1
    24    68    69    1
    25    56    57    1
    26    91    89   ar
    27    91    92   ar
    28    89    88   ar
    29    94    92   ar
    30    94    96   ar
    31    57    59   ar
    32    57    58   ar
    33    92    90   ar
    34    69    70    1
    35    83    84    1
    36    59    61   ar
    37    88    90   ar
    38    88    87    1
    39    58    60   ar
    40    96    95   ar
    41    90    93   ar
    42    84    87    1
    43    84    85    1
    44    61    60   ar
    45   119   120    1
    46   119   116    1
    47    95    93   ar
    48    44    45    1
    49    86    85    2
    50    10     9    1
    51   117   116    1
    52   117   118    2
    53   116   115    1
    54    48    45    1
    55    48    49    1
    56    45    46    1
    57    49    51   ar
    58    49    50   ar
    59     9     8    2
    60     9    11    1
    61    46    47    2
    62     8     7    1
    63   129   127   ar
    64   129   131   ar
    65   127   126   ar
    66     7     6    1
    67   131   132    1
    68   131   130   ar
    69   126   125    1
    70   126   128   ar
    71   125   122    1
    72   115   110   am
    73   130   128   ar
    74     6     5    1
    75    20    18   ar
    76    20    21   ar
    77    18    17   ar
    78   110   111    2
    79   110   109    1
    80   121   122    1
    81   122   123    1
    82     5     2    1
    83     2     3    1
    84     2     1    1
    85    21    19   ar
    86    17    16    1
    87    17    19   ar
    88   142   141    1
    89   109   108    1
    90   109   112    1
    91     3     4    2
    92   143   141    1
    93    13    16    1
    94    13    12    1
    95    13    14    1
    96   123   124    2
    97   141   140    2
    98    29    31   ar
    99    29    27   ar
   100    31    32   ar
   101   114   112    1
   102   108   106   am
   103   107   106    2
   104   140   139    1
   105    22    14   am
   106    22    23    1
   107   112   113    1
   108   106   105    1
   109    14    15    2
   110   139   138    1
   111    26    27    1
   112    26    23    1
   113    27    28   ar
   114    32    33    1
   115    32    30   ar
   116   105   104    1
   117    23    24    1
   118    42    43   ar
   119    42    40   ar
   120   138   137    1
   121    28    30   ar
   122    43    41   ar
   123    40    39   ar
   124   104    99   am
   125    24    34   am
   126    24    25    2
   127    34    35    1
   128    41    39   ar
   129    39    38    1
   130   133   134    1
   131   100    99    2
   132   137   134    1
   133   134   135    1
   134    99    98    1
   135   103   101    1
   136    38    35    1
   137    35    36    1
   138   101    98    1
   139   101   102    1
   140    98    97    1
   141   135   136    2
   142    36    37    2
