@<TRIPOS>MOLECULE
tmp/2daaA00.pdb
 177 167 0 0 0
SMALL
GASTEIGER

@<TRIPOS>ATOM
      1  N         33.5400   38.6160   12.2720 N.3    31  TYR31      -0.1241
      2  CA        33.2290   38.3630   10.8660 C.3    31  TYR31       0.1605
      3  C         31.8340   38.8200   10.4320 C.2    31  TYR31       0.2264
      4  O         31.0210   39.2610   11.2530 O.2    31  TYR31      -0.2867
      5  CB        33.3750   36.8670   10.5660 C.3    31  TYR31       0.0534
      6  CG        32.2460   36.0150   11.1100 C.ar   31  TYR31      -0.0201
      7  CD1       32.2010   35.6440   12.4540 C.ar   31  TYR31      -0.0009
      8  CD2       31.2040   35.6000   10.2800 C.ar   31  TYR31      -0.0009
      9  CE1       31.1420   34.8830   12.9560 C.ar   31  TYR31       0.0417
     10  CE2       30.1510   34.8440   10.7670 C.ar   31  TYR31       0.0417
     11  CZ        30.1240   34.4880   12.1040 C.ar   31  TYR31       0.1957
     12  OH        29.0730   33.7380   12.5700 O.3    31  TYR31      -0.2866
     13  N         28.7490   38.1100    6.9240 N.3    33  VAL33      -0.1245
     14  CA        28.2810   37.3600    5.7580 C.3    33  VAL33       0.1561
     15  C         27.2530   38.2710    5.0810 C.2    33  VAL33       0.2260
     16  O         26.3230   38.7480    5.7360 O.2    33  VAL33      -0.2867
     17  CB        27.5990   36.0250    6.1610 C.3    33  VAL33       0.0252
     18  CG1       26.9920   35.3440    4.9450 C.3    33  VAL33       0.0019
     19  CG2       28.6040   35.1010    6.7900 C.3    33  VAL33       0.0019
     20  N         25.8030   45.5960    7.2710 N.3    47  HIS47      -0.1241
     21  CA        26.7640   44.5670    7.6470 C.3    47  HIS47       0.1621
     22  C         28.1470   45.1430    7.9360 C.2    47  HIS47       0.2264
     23  O         28.8530   44.6510    8.8120 O.2    47  HIS47      -0.2867
     24  CB        26.8490   43.4840    6.5760 C.3    47  HIS47       0.0745
     25  CG        25.7080   42.5200    6.6060 C.ar   47  HIS47       0.0817
     26  ND1       25.7140   41.3790    7.3810 N.ar   47  HIS47      -0.2268
     27  CD2       24.5250   42.5130    5.9420 C.ar   47  HIS47       0.1154
     28  CE1       24.5910   40.7130    7.1920 C.ar   47  HIS47       0.1986
     29  NE2       23.8540   41.3780    6.3260 N.ar   47  HIS47      -0.2212
     30  N         28.2110   46.8830   11.3560 N.3    50  ARG50      -0.1245
     31  CA        28.2690   45.8620   12.4000 C.3    50  ARG50       0.1563
     32  C         29.6540   45.2350   12.5490 C.2    50  ARG50       0.2260
     33  O         30.0680   44.9230   13.6580 O.2    50  ARG50      -0.2867
     34  CB        27.2050   44.7820   12.1880 C.3    50  ARG50       0.0307
     35  CG        26.9160   43.9970   13.4570 C.3    50  ARG50       0.0489
     36  CD        25.7420   43.0650   13.2830 C.3    50  ARG50       0.2205
     37  NE        26.0430   42.0040   12.3330 N.pl3  50  ARG50      -0.0865
     38  CZ        25.2160   41.0110   12.0270 C.cat  50  ARG50       0.5346
     39  NH1       24.0210   40.9340   12.5910 N.pl3  50  ARG50       0.1354
     40  NH2       25.5860   40.0820   11.1660 N.pl3  50  ARG50       0.1354
     41  N         26.9890   29.0760   25.5830 N.3   138  ARG138     -0.1245
     42  CA        27.9610   30.0030   25.0230 C.3   138  ARG138      0.1563
     43  C         28.3840   31.0740   26.0160 C.2   138  ARG138      0.2260
     44  O         27.7980   31.2020   27.0880 O.2   138  ARG138     -0.2867
     45  CB        27.3950   30.6510   23.7600 C.3   138  ARG138      0.0307
     46  CG        27.0500   29.6450   22.6600 C.3   138  ARG138      0.0489
     47  CD        26.3640   30.3220   21.4770 C.3   138  ARG138      0.2205
     48  NE        25.1070   30.9330   21.8900 N.pl3 138  ARG138     -0.0865
     49  CZ        24.5150   31.9330   21.2560 C.cat 138  ARG138      0.5346
     50  NH1       25.0540   32.4430   20.1540 N.pl3 138  ARG138      0.1354
     51  NH2       23.4080   32.4620   21.7600 N.pl3 138  ARG138      0.1354
     52  N         29.9870   39.5100   17.1890 N.3   145  LYS145     -0.1245
     53  CA        30.0080   38.4550   16.1800 C.3   145  LYS145      0.1561
     54  C         31.4590   38.0130   15.9840 C.2   145  LYS145      0.2260
     55  O         32.1010   38.3580   14.9920 O.2   145  LYS145     -0.2867
     56  CB        29.3930   38.9820   14.8760 C.3   145  LYS145      0.0271
     57  CG        29.0130   37.9160   13.8580 C.3   145  LYS145      0.0035
     58  CD        28.2840   38.5640   12.6820 C.3   145  LYS145      0.0206
     59  CE        27.8730   37.5670   11.5920 C.3   145  LYS145      0.1093
     60  NZ        26.7100   36.7250   11.9500 N.3   145  LYS145     -0.1314
     61  N         33.1900   30.3180   17.9160 N.3   149  LEU149     -0.1245
     62  CA        31.9150   29.6770   17.5790 C.3   149  LEU149      0.1561
     63  C         31.7470   28.2080   17.9160 C.2   149  LEU149      0.2260
     64  O         30.8250   27.5720   17.4100 O.2   149  LEU149     -0.2867
     65  CB        31.6440   29.8530   16.0800 C.3   149  LEU149      0.0270
     66  CG        31.5230   31.2810   15.5580 C.3   149  LEU149      0.0019
     67  CD1       31.7640   31.3130   14.0520 C.3   149  LEU149      0.0001
     68  CD2       30.1580   31.8390   15.9240 C.3   149  LEU149      0.0001
     69  N         28.2820   27.1240   19.0450 N.3   152  ALA152     -0.1245
     70  CA        27.3440   27.0760   17.9210 C.3   152  ALA152      0.1562
     71  C         27.5310   25.8580   17.0210 C.2   152  ALA152      0.2260
     72  O         26.5500   25.2920   16.5360 O.2   152  ALA152     -0.2867
     73  CB        27.4450   28.3360   17.1110 C.3   152  ALA152      0.0290
     74  N         18.3910   32.6000   20.9610 N.3   177  GLU177     -0.1231
     75  CA        18.4940   32.6630   19.4950 C.3   177  GLU177      0.1699
     76  C         18.8500   31.2680   18.9860 C.2   177  GLU177      0.2593
     77  O         18.8860   30.3200   19.7720 O.2   177  GLU177     -0.2718
     78  CB        19.5560   33.6870   19.0570 C.3   177  GLU177      0.0402
     79  CG        20.9770   33.3790   19.5390 C.3   177  GLU177      0.1161
     80  CD        21.9880   34.4320   19.1380 C.2   177  GLU177      0.3649
     81  OE1       21.6900   35.2480   18.2530 O.co2 177  GLU177     -0.2457
     82  OE2       23.0970   34.4410   19.7020 O.co2 177  GLU177     -0.2457
     83  N         19.0300   31.1180   17.6740 N.am  178  GLY178     -0.1942
     84  CA        19.3900   29.8180   17.1270 C.3   178  GLY178      0.2014
     85  C         20.8960   29.7220   16.9810 C.2   178  GLY178      0.2640
     86  O         21.5750   30.7370   17.0800 O.2   178  GLY178     -0.2714
     87  N         21.4300   28.5340   16.7230 N.am  179  SER179     -0.1935
     88  CA        22.8780   28.3940   16.5610 C.3   179  SER179      0.2055
     89  C         23.4600   29.3390   15.4950 C.2   179  SER179      0.2644
     90  O         24.6380   29.6970   15.5690 O.2   179  SER179     -0.2714
     91  CB        23.2660   26.9440   16.2980 C.3   179  SER179      0.2130
     92  OG        22.6560   26.4480   15.1290 O.3   179  SER179     -0.2179
     93  N         22.6650   29.7040   14.4860 N.am  180  SER180     -0.1935
     94  CA        23.1100   30.6760   13.4860 C.3   180  SER180      0.2055
     95  C         21.9460   31.4900   12.9170 C.2   180  SER180      0.2644
     96  O         21.9330   31.8250   11.7340 O.2   180  SER180     -0.2714
     97  CB        23.9330   30.0450   12.3580 C.3   180  SER180      0.2130
     98  OG        23.1370   29.2630   11.4950 O.3   180  SER180     -0.2179
     99  N         21.0050   31.8640   13.7810 N.am  181  SER181     -0.1935
    100  CA        19.8430   32.6480   13.3650 C.3   181  SER181      0.2055
    101  C         19.1680   33.2650   14.5770 C.2   181  SER181      0.2643
    102  O         19.5400   32.9510   15.7160 O.2   181  SER181     -0.2714
    103  CB        18.8330   31.7520   12.6530 C.3   181  SER181      0.2130
    104  OG        18.3180   30.7620   13.5330 O.3   181  SER181     -0.2179
    105  N         18.2580   34.2090   14.3420 N.am  182  ASN182     -0.1971
    106  CA        17.4940   34.8250   15.4280 C.3   182  ASN182      0.1688
    107  C         16.1320   34.1340   15.4330 C.2   182  ASN182      0.2292
    108  O         15.7080   33.6020   14.4030 O.2   182  ASN182     -0.2864
    109  CB        17.3530   36.3390   15.2420 C.3   182  ASN182      0.1181
    110  CG        18.6110   37.0920   15.6290 C.2   182  ASN182      0.2629
    111  OD1       19.2530   37.7290   14.7890 O.2   182  ASN182     -0.2716
    112  ND2       18.9780   37.0200   16.9080 N.am  182  ASN182     -0.0877
    113  N         22.7650   38.0740   19.2260 N.3   201  LEU201     -0.1245
    114  CA        23.3930   38.8680   18.1730 C.3   201  LEU201      0.1561
    115  C         22.2370   39.6810   17.5830 C.2   201  LEU201      0.2260
    116  O         21.1760   39.1210   17.3120 O.2   201  LEU201     -0.2867
    117  CB        23.9640   37.9460   17.0850 C.3   201  LEU201      0.0270
    118  CG        25.2060   38.3330   16.2700 C.3   201  LEU201      0.0019
    119  CD1       24.9830   37.9170   14.8320 C.3   201  LEU201      0.0001
    120  CD2       25.5020   39.8080   16.3230 C.3   201  LEU201      0.0001
    121  N         20.7990   40.6220   14.8260 N.3   203  GLY203     -0.1210
    122  CA        20.8510   40.3000   13.4060 C.3   203  GLY203      0.1956
    123  C         20.3630   41.3690   12.4530 C.2   203  GLY203      0.2612
    124  O         19.4720   42.1450   12.7890 O.2   203  GLY203     -0.2717
    125  N         20.9200   41.3910   11.2470 N.am  204  ILE204     -0.1965
    126  CA        20.5170   42.3800   10.2550 C.3   204  ILE204      0.1727
    127  C         19.1540   41.9740    9.7120 C.2   204  ILE204      0.2617
    128  O         18.2680   42.8130    9.5780 O.2   204  ILE204     -0.2715
    129  CB        21.5390   42.5080    9.0850 C.3   204  ILE204      0.0290
    130  CG1       22.9250   42.9080    9.6130 C.3   204  ILE204      0.0022
    131  CG2       21.0510   43.5390    8.0590 C.3   204  ILE204      0.0023
    132  CD1       22.9590   44.1690   10.4730 C.3   204  ILE204      0.0001
    133  N         18.9750   40.6830    9.4550 N.am  205  THR205     -0.1937
    134  CA        17.7070   40.1840    8.9390 C.3   205  THR205      0.2028
    135  C         16.6330   40.4550    9.9690 C.2   205  THR205      0.2642
    136  O         15.5160   40.8390    9.6290 O.2   205  THR205     -0.2714
    137  CB        17.7690   38.6970    8.6690 C.3   205  THR205      0.1808
    138  OG1       18.9910   38.4040    7.9900 O.3   205  THR205     -0.2208
    139  CG2       16.6110   38.2720    7.7850 C.3   205  THR205      0.0379
    140  N         17.0070   40.2810   11.2340 N.am  206  ARG206     -0.1977
    141  CA        16.1380   40.5170   12.3830 C.3   206  ARG206      0.1597
    142  C         15.5830   41.9380   12.3320 C.2   206  ARG206      0.2287
    143  O         14.3730   42.1270   12.3920 O.2   206  ARG206     -0.2864
    144  CB        16.9460   40.3260   13.6740 C.3   206  ARG206      0.0334
    145  CG        16.2390   40.7160   14.9630 C.3   206  ARG206      0.0492
    146  CD        17.2260   40.7540   16.1420 C.3   206  ARG206      0.2205
    147  NE        16.5400   40.9060   17.4210 N.pl3 206  ARG206     -0.0865
    148  CZ        16.2460   42.0770   17.9760 C.cat 206  ARG206      0.5346
    149  NH1       16.6180   43.2170   17.3980 N.pl3 206  ARG206      0.1354
    150  NH2       15.6060   42.1090   19.1340 N.pl3 206  ARG206      0.1354
    151  N         15.5220   33.7510   11.4730 N.3   239  THR239     -0.1203
    152  CA        16.0560   34.6550   10.4660 C.3   239  THR239      0.1994
    153  C         17.5920   34.6950   10.4240 C.2   239  THR239      0.2619
    154  O         18.2620   34.5280   11.4460 O.2   239  THR239     -0.2717
    155  CB        15.5640   36.0980   10.7080 C.3   239  THR239      0.1784
    156  OG1       16.0010   36.5460   11.9970 O.3   239  THR239     -0.2211
    157  CG2       14.0550   36.1730   10.6470 C.3   239  THR239      0.0376
    158  N         18.1360   34.8760    9.2270 N.am  240  SER240     -0.1937
    159  CA        19.5750   35.0020    9.0200 C.3   240  SER240      0.2055
    160  C         19.8210   35.4330    7.5790 C.2   240  SER240      0.2644
    161  O         18.9470   35.2900    6.7140 O.2   240  SER240     -0.2714
    162  CB        20.3310   33.7120    9.3370 C.3   240  SER240      0.2130
    163  OG        20.3300   32.8000    8.2570 O.3   240  SER240     -0.2179
    164  N         20.9890   36.0090    7.3370 N.am  241  THR241     -0.1936
    165  CA        21.3620   36.4750    6.0130 C.3   241  THR241      0.2028
    166  C         21.1880   35.4050    4.9280 C.2   241  THR241      0.2642
    167  O         20.7800   35.7270    3.8130 O.2   241  THR241     -0.2714
    168  CB        22.7970   37.0330    6.0300 C.3   241  THR241      0.1808
    169  OG1       22.8410   38.1710    6.8950 O.3   241  THR241     -0.2208
    170  CG2       23.2390   37.4620    4.6470 C.3   241  THR241      0.0379
    171  N         21.4210   34.1340    5.2620 N.am  242  THR242     -0.1950
    172  CA        21.2760   33.0550    4.2810 C.3   242  THR242      0.1897
    173  C         19.9500   32.2750    4.3190 C.2   242  THR242      0.2313
    174  O         19.5000   31.7690    3.2920 O.2   242  THR242     -0.2863
    175  CB        22.4690   32.0800    4.3280 C.3   242  THR242      0.1794
    176  OG1       22.5970   31.5320    5.6410 O.3   242  THR242     -0.2208
    177  CG2       23.7600   32.8140    3.9850 C.3   242  THR242      0.0378
@<TRIPOS>BOND
     1   174   173    2
     2   167   166    2
     3   177   175    1
     4   172   173    1
     5   172   175    1
     6   172   171    1
     7   175   176    1
     8   170   168    1
     9   166   171   am
    10   166   165    1
    11    18    17    1
    12    15    16    2
    13    15    14    1
    14    14    17    1
    15    14    13    1
    16    27    29   ar
    17    27    25   ar
    18   165   168    1
    19   165   164    1
    20   168   169    1
    21    17    19    1
    22    29    28   ar
    23    24    25    1
    24    24    21    1
    25    25    26   ar
    26   161   160    2
    27    28    26   ar
    28    20    21    1
    29   164   160   am
    30   160   159    1
    31    21    22    1
    32   139   137    1
    33    22    23    2
    34   138   137    1
    35   131   129    1
    36   163   162    1
    37   137   134    1
    38   134   133    1
    39   134   135    1
    40   159   158    1
    41   159   162    1
    42   129   130    1
    43   129   126    1
    44   158   153   am
    45   133   127   am
    46   128   127    2
    47   130   132    1
    48   136   135    2
    49   127   126    1
    50   135   140   am
    51   126   125    1
    52     8    10   ar
    53     8     6   ar
    54   153   152    1
    55   153   154    2
    56     3     2    1
    57     3     4    2
    58   152   155    1
    59   152   151    1
    60     5     2    1
    61     5     6    1
    62   157   155    1
    63   155   156    1
    64    10    11   ar
    65     2     1    1
    66     6     7   ar
    67    40    38    1
    68   140   141    1
    69   125   123   am
    70    30    31    1
    71    98    97    1
    72    59    60    1
    73    59    58    1
    74    96    95    2
    75    38    37    2
    76    38    39    1
    77    11    12    1
    78    11     9   ar
    79    34    31    1
    80    34    35    1
    81   142   141    1
    82   142   143    2
    83    37    36    1
    84    97    94    1
    85   141   144    1
    86    31    32    1
    87   123   124    2
    88   123   122    1
    89     7     9   ar
    90    32    33    2
    91   103   100    1
    92   103   104    1
    93    58    57    1
    94    95    94    1
    95    95    99   am
    96    36    35    1
    97   100    99    1
    98   100   101    1
    99   122   121    1
   100    94    93    1
   101   144   145    1
   102    57    56    1
   103    67    66    1
   104   105   101   am
   105   105   106    1
   106   108   107    2
   107    93    89   am
   108   101   102    2
   109   111   110    2
   110   119   118    1
   111    56    53    1
   112   145   146    1
   113    55    54    2
   114    92    91    1
   115   109   106    1
   116   109   110    1
   117   106   107    1
   118    89    90    2
   119    89    88    1
   120    66    68    1
   121    66    65    1
   122   110   112   am
   123    54    53    1
   124    65    62    1
   125   146   147    1
   126    53    52    1
   127   118   120    1
   128   118   117    1
   129    91    88    1
   130    72    71    2
   131    88    87    1
   132    87    85   am
   133    85    86    2
   134    85    84    1
   135    71    70    1
   136   117   114    1
   137    73    70    1
   138    84    83    1
   139   116   115    2
   140   149   148    1
   141    64    63    2
   142   147   148    2
   143    62    61    1
   144    62    63    1
   145   115   114    1
   146    83    76   am
   147    70    69    1
   148   148   150    1
   149   114   113    1
   150    81    80   ar
   151    76    75    1
   152    76    77    2
   153    78    75    1
   154    78    79    1
   155    80    79    1
   156    80    82   ar
   157    75    74    1
   158    50    49    1
   159    49    51    1
   160    49    48    2
   161    47    48    1
   162    47    46    1
   163    46    45    1
   164    45    42    1
   165    42    41    1
   166    42    43    1
   167    43    44    2
