@<TRIPOS>MOLECULE
tmp/2dapA00.pdb
 133 131 0 0 0
SMALL
GASTEIGER

@<TRIPOS>ATOM
      1  N        -10.6430   44.4870   11.6450 N.3    90  ASP90      -0.1239
      2  CA       -12.0100   44.8820   11.3400 C.3    90  ASP90       0.1674
      3  C        -12.5450   44.8620    9.9230 C.2    90  ASP90       0.2266
      4  O        -13.6000   45.4360    9.6680 O.2    90  ASP90      -0.2867
      5  CB       -12.3400   46.2300   11.9970 C.3    90  ASP90       0.1410
      6  CG       -11.5310   47.3950   11.4330 C.2    90  ASP90       0.3668
      7  OD1      -10.8550   47.2290   10.3910 O.co2  90  ASP90      -0.2456
      8  OD2      -11.6000   48.4960   12.0350 O.co2  90  ASP90      -0.2456
      9  N        -14.6240   43.3920    7.8800 N.3    92  HIS92      -0.1241
     10  CA       -15.7220   42.4230    7.9900 C.3    92  HIS92       0.1621
     11  C        -15.8460   41.3530    6.9080 C.2    92  HIS92       0.2264
     12  O        -16.1570   40.2020    7.2120 O.2    92  HIS92      -0.2867
     13  CB       -17.0600   43.1450    8.1730 C.3    92  HIS92       0.0745
     14  CG       -17.2030   43.8240    9.5010 C.ar   92  HIS92       0.0817
     15  ND1      -17.4380   43.1320   10.6700 N.ar   92  HIS92      -0.2268
     16  CD2      -17.1450   45.1320    9.8460 C.ar   92  HIS92       0.1154
     17  CE1      -17.5170   43.9810   11.6790 C.ar   92  HIS92       0.1986
     18  NE2      -17.3420   45.2020   11.2050 N.ar   92  HIS92      -0.2212
     19  N        -14.7890   46.7680   19.7330 N.3   119  TRP119     -0.1227
     20  CA       -16.2120   46.9690   20.0710 C.3   119  TRP119      0.1737
     21  C        -17.0830   46.6730   18.8510 C.2   119  TRP119      0.2595
     22  O        -18.2300   46.3230   18.9760 O.2   119  TRP119     -0.2718
     23  CB       -16.5070   48.3330   20.6960 C.3   119  TRP119      0.0564
     24  CG       -16.1040   49.5280   19.9070 C.ar  119  TRP119      0.0003
     25  CD1      -14.8850   50.1250   19.9070 C.ar  119  TRP119      0.0946
     26  CD2      -16.9500   50.3450   19.0950 C.ar  119  TRP119      0.0152
     27  NE1      -14.9230   51.2700   19.1590 N.ar  119  TRP119     -0.2442
     28  CE2      -16.1810   51.4280   18.6480 C.ar  119  TRP119      0.0810
     29  CE3      -18.2950   50.2650   18.7040 C.ar  119  TRP119      0.0012
     30  CZ2      -16.7050   52.4310   17.8340 C.ar  119  TRP119      0.0191
     31  CZ3      -18.8130   51.2630   17.8900 C.ar  119  TRP119      0.0001
     32  CH2      -18.0230   52.3270   17.4660 C.ar  119  TRP119      0.0015
     33  N        -16.5340   46.8640   17.6620 N.am  120  ASP120     -0.1960
     34  CA       -17.2050   46.4800   16.4220 C.3   120  ASP120      0.1825
     35  C        -16.1610   46.4110   15.3180 C.2   120  ASP120      0.2464
     36  O        -15.8610   47.4150   14.6910 O.2   120  ASP120     -0.2730
     37  CB       -18.4090   47.3420   16.0160 C.3   120  ASP120      0.1450
     38  CG       -19.3340   46.6030   15.0080 C.2   120  ASP120      0.3671
     39  OD1      -19.2900   45.3590   14.9350 O.co2 120  ASP120     -0.2456
     40  OD2      -20.1030   47.2430   14.2630 O.co2 120  ASP120     -0.2456
     41  N        -15.6650   45.1940   15.0120 N.am  121  PRO121     -0.2727
     42  CA       -16.0330   43.9110   15.6340 C.3   121  PRO121      0.1402
     43  C        -15.6530   43.7670   17.0990 C.2   121  PRO121      0.2269
     44  O        -14.8380   44.5180   17.6080 O.2   121  PRO121     -0.2865
     45  CB       -15.3190   42.8750   14.7450 C.3   121  PRO121      0.0296
     46  CG       -14.1190   43.5900   14.2880 C.3   121  PRO121      0.0237
     47  CD       -14.6530   44.9800   13.9610 C.3   121  PRO121      0.0939
     48  N        -24.2620   53.1880   14.4080 N.3   144  TRP144     -0.1241
     49  CA       -22.9740   53.7270   14.8570 C.3   144  TRP144      0.1605
     50  C        -23.0220   55.2180   15.0220 C.2   144  TRP144      0.2264
     51  O        -23.7030   55.9120   14.2700 O.2   144  TRP144     -0.2867
     52  CB       -21.8690   53.4360   13.8630 C.3   144  TRP144      0.0550
     53  CG       -21.6580   52.0020   13.6370 C.ar  144  TRP144      0.0003
     54  CD1      -21.0590   51.1220   14.4780 C.ar  144  TRP144      0.0946
     55  CD2      -22.0600   51.2650   12.4870 C.ar  144  TRP144      0.0152
     56  NE1      -21.0600   49.8680   13.9230 N.ar  144  TRP144     -0.2442
     57  CE2      -21.6670   49.9230   12.6970 C.ar  144  TRP144      0.0810
     58  CE3      -22.7130   51.6060   11.2940 C.ar  144  TRP144      0.0012
     59  CZ2      -21.8970   48.9200   11.7600 C.ar  144  TRP144      0.0191
     60  CZ3      -22.9450   50.6040   10.3490 C.ar  144  TRP144      0.0001
     61  CH2      -22.5360   49.2760   10.5910 C.ar  144  TRP144      0.0015
     62  N        -15.3580   57.5300   12.8040 N.3   149  SER149     -0.1202
     63  CA       -15.0650   56.1570   12.4400 C.3   149  SER149      0.2020
     64  C        -13.6090   56.0670   12.0250 C.2   149  SER149      0.2619
     65  O        -13.1880   56.7190   11.0750 O.2   149  SER149     -0.2717
     66  CB       -15.9330   55.7180   11.2810 C.3   149  SER149      0.2103
     67  OG       -15.4760   54.4950   10.7400 O.3   149  SER149     -0.2182
     68  N        -12.8310   55.2600   12.7340 N.am  150  GLN150     -0.1965
     69  CA       -11.4350   55.1270   12.3700 C.3   150  GLN150      0.1733
     70  C        -11.2450   54.4650   11.0020 C.2   150  GLN150      0.2617
     71  O        -10.4290   54.9170   10.2090 O.2   150  GLN150     -0.2715
     72  CB       -10.6530   54.3950   13.4610 C.3   150  GLN150      0.0408
     73  CG        -9.1240   54.5060   13.3130 C.3   150  GLN150      0.0908
     74  CD        -8.6050   55.9690   13.2070 C.2   150  GLN150      0.2608
     75  OE1       -8.9650   56.8260   14.0140 O.2   150  GLN150     -0.2717
     76  NE2       -7.7500   56.2380   12.2130 N.am  150  GLN150     -0.0878
     77  N        -12.0340   53.4360   10.7030 N.am  151  GLY151     -0.1940
     78  CA       -11.9140   52.7280    9.4370 C.3   151  GLY151      0.2014
     79  C        -12.1580   53.5990    8.2310 C.2   151  GLY151      0.2638
     80  O        -11.4580   53.4770    7.2270 O.2   151  GLY151     -0.2714
     81  N        -13.1770   54.4510    8.3150 N.am  152  HIS152     -0.1973
     82  CA       -13.5180   55.3710    7.2330 C.3   152  HIS152      0.1656
     83  C        -12.5470   56.5590    7.1500 C.2   152  HIS152      0.2291
     84  O        -12.2300   57.0220    6.0570 O.2   152  HIS152     -0.2864
     85  CB       -14.9570   55.8540    7.3800 C.3   152  HIS152      0.0771
     86  CG       -15.9700   54.8010    7.0630 C.ar  152  HIS152      0.0820
     87  ND1      -16.2390   53.7470    7.9100 N.ar  152  HIS152     -0.2267
     88  CD2      -16.7050   54.5830    5.9490 C.ar  152  HIS152      0.1154
     89  CE1      -17.0850   52.9190    7.3250 C.ar  152  HIS152      0.1986
     90  NE2      -17.3830   53.4040    6.1350 N.ar  152  HIS152     -0.2212
     91  N        -19.7410   59.1950   11.4050 N.3   169  THR169     -0.1218
     92  CA       -20.9040   58.3620   11.0730 C.3   169  THR169      0.1862
     93  C        -22.0510   58.9280   11.9070 C.2   169  THR169      0.2287
     94  O        -21.9190   59.0380   13.1170 O.2   169  THR169     -0.2866
     95  CB       -20.6870   56.8920   11.4660 C.3   169  THR169      0.1770
     96  OG1      -19.4350   56.4260   10.9230 O.3   169  THR169     -0.2211
     97  CG2      -21.8410   56.0200   10.9100 C.3   169  THR169      0.0375
     98  N        -22.9360   59.7100    6.1470 N.3   195  ARG195     -0.1245
     99  CA       -21.4910   59.7510    6.3610 C.3   195  ARG195      0.1563
    100  C        -20.9500   61.1550    6.0500 C.2   195  ARG195      0.2260
    101  O        -21.0170   61.6300    4.9170 O.2   195  ARG195     -0.2867
    102  CB       -20.8010   58.6420    5.5710 C.3   195  ARG195      0.0307
    103  CG       -21.5420   57.3170    5.7170 C.3   195  ARG195      0.0489
    104  CD       -20.7300   56.0980    5.3750 C.3   195  ARG195      0.2205
    105  NE       -20.0720   55.5910    6.5630 N.pl3 195  ARG195     -0.0865
    106  CZ       -20.3830   54.4670    7.1930 C.cat 195  ARG195      0.5346
    107  NH1      -21.3380   53.6900    6.7700 N.pl3 195  ARG195      0.1354
    108  NH2      -19.7260   54.1170    8.2650 N.pl3 195  ARG195      0.1354
    109  N        -16.9630   58.0030   19.8430 N.3   244  HIS244     -0.1241
    110  CA       -17.7510   57.1230   19.0000 C.3   244  HIS244      0.1621
    111  C        -18.6350   56.2610   19.8710 C.2   244  HIS244      0.2264
    112  O        -18.6350   56.4170   21.0850 O.2   244  HIS244     -0.2867
    113  CB       -16.8760   56.2820   18.0690 C.3   244  HIS244      0.0745
    114  CG       -17.5480   55.9180   16.7780 C.ar  244  HIS244      0.0817
    115  ND1      -18.7470   56.4680   16.3780 N.ar  244  HIS244     -0.2268
    116  CD2      -17.1630   55.0990   15.7730 C.ar  244  HIS244      0.1154
    117  CE1      -19.0650   56.0140   15.1790 C.ar  244  HIS244      0.1986
    118  NE2      -18.1190   55.1800   14.7890 N.ar  244  HIS244     -0.2212
    119  N        -12.4650   56.5600   21.1560 N.3   270  ASN270     -0.1240
    120  CA       -12.6200   55.3500   20.3710 C.3   270  ASN270      0.1653
    121  C        -11.5070   54.2890   20.5310 C.2   270  ASN270      0.2266
    122  O        -11.8160   53.1440   20.8720 O.2   270  ASN270     -0.2867
    123  CB       -12.8760   55.7660   18.9020 C.3   270  ASN270      0.1155
    124  CG       -13.3290   54.6230   18.0050 C.2   270  ASN270      0.2627
    125  OD1      -13.3130   53.4760   18.3850 O.2   270  ASN270     -0.2716
    126  ND2      -13.7040   54.9540   16.7820 N.am  270  ASN270     -0.0877
    127  N        -11.3920   50.1670   22.3270 N.3   274  THR274     -0.1218
    128  CA       -10.9120   49.0660   21.5000 C.3   274  THR274      0.1862
    129  C         -9.7490   48.3710   22.2330 C.2   274  THR274      0.2287
    130  O         -9.7400   47.1430   22.3630 O.2   274  THR274     -0.2866
    131  CB       -10.4420   49.5660   20.1100 C.3   274  THR274      0.1770
    132  OG1      -11.5320   50.2070   19.4400 O.3   274  THR274     -0.2211
    133  CG2       -9.9540   48.4070   19.2420 C.3   274  THR274      0.0375
@<TRIPOS>BOND
     1   101   100    2
     2   104   103    1
     3   104   105    1
     4   102   103    1
     5   102    99    1
     6    88    90   ar
     7    88    86   ar
     8   100    99    1
     9    84    83    2
    10    90    89   ar
    11    98    99    1
    12   105   106    2
    13   107   106    1
    14    11    12    2
    15    11    10    1
    16    86    85    1
    17    86    87   ar
    18    83    82    1
    19   106   108    1
    20    80    79    2
    21    82    85    1
    22    82    81    1
    23    89    87   ar
    24     9    10    1
    25    10    13    1
    26    13    14    1
    27    79    81   am
    28    79    78    1
    29    78    77    1
    30    14    16   ar
    31    14    15   ar
    32     4     3    2
    33    16    18   ar
    34     3     2    1
    35    71    70    2
    36    60    61   ar
    37    60    58   ar
    38     7     6   ar
    39    61    59   ar
    40    15    17   ar
    41    77    70   am
    42    67    66    1
    43    97    95    1
    44    96    95    1
    45    70    69    1
    46    92    91    1
    47    92    95    1
    48    92    93    1
    49    65    64    2
    50    18    17   ar
    51    66    63    1
    52    58    55   ar
    53     2     1    1
    54     2     5    1
    55     6     5    1
    56     6     8   ar
    57    59    57   ar
    58    93    94    2
    59    64    63    1
    60    64    68   am
    61    76    74   am
    62    69    68    1
    63    69    72    1
    64    63    62    1
    65    55    57   ar
    66    55    53   ar
    67    57    56   ar
    68    74    73    1
    69    74    75    2
    70    73    72    1
    71    53    52    1
    72    53    54   ar
    73    52    49    1
    74    56    54   ar
    75    47    46    1
    76    47    41    1
    77    40    38   ar
    78    51    50    2
    79    46    45    1
    80    48    49    1
    81    36    35    2
    82    45    42    1
    83   118   117   ar
    84   118   116   ar
    85    49    50    1
    86    39    38   ar
    87    38    37    1
    88    41    35   am
    89    41    42    1
    90   117   115   ar
    91    35    34    1
    92    42    43    1
    93   116   114   ar
    94    37    34    1
    95   115   114   ar
    96    34    33    1
    97   114   113    1
    98   126   124   am
    99    43    44    2
   100    32    30   ar
   101    32    31   ar
   102    33    21   am
   103    30    28   ar
   104    31    29   ar
   105   124   125    2
   106   124   123    1
   107   113   110    1
   108    28    26   ar
   109    28    27   ar
   110    29    26   ar
   111    21    22    2
   112    21    20    1
   113   123   120    1
   114   110   109    1
   115   110   111    1
   116    26    24   ar
   117    27    25   ar
   118   133   131    1
   119   132   131    1
   120    19    20    1
   121   111   112    2
   122    24    25   ar
   123    24    23    1
   124    20    23    1
   125   131   128    1
   126   120   121    1
   127   120   119    1
   128   121   122    2
   129   128   129    1
   130   128   127    1
   131   129   130    2
