@<TRIPOS>MOLECULE
tmp/2dblB00.pdb
 101 104 0 0 0
SMALL
GASTEIGER

@<TRIPOS>ATOM
      1  N        -29.2140   46.1730  -10.0180 N.3    33  GLY33      -0.1225
      2  CA       -29.0040   44.8950   -9.3900 C.3    33  GLY33       0.1811
      3  C        -29.0580   45.1970   -7.8990 C.2    33  GLY33       0.2280
      4  O        -28.9590   46.3490   -7.4830 O.2    33  GLY33      -0.2866
      5  N        -26.8700   44.4210   -4.7290 N.3    35  ASN35      -0.1240
      6  CA       -25.5730   43.8580   -4.3910 C.3    35  ASN35       0.1653
      7  C        -25.5930   43.6790   -2.8810 C.2    35  ASN35       0.2266
      8  O        -26.4090   44.2680   -2.1760 O.2    35  ASN35      -0.2867
      9  CB       -24.4370   44.7860   -4.7700 C.3    35  ASN35       0.1155
     10  CG       -24.1380   44.7470   -6.2400 C.2    35  ASN35       0.2627
     11  OD1      -23.5660   43.8070   -6.7280 O.2    35  ASN35      -0.2716
     12  ND2      -24.4970   45.7870   -6.9540 N.am   35  ASN35      -0.0877
     13  N        -17.2610   42.4440   -0.9990 N.3    47  TRP47      -0.1241
     14  CA       -18.3970   42.2830   -1.9100 C.3    47  TRP47       0.1605
     15  C        -18.7940   40.8030   -1.9390 C.2    47  TRP47       0.2264
     16  O        -17.9950   39.9360   -2.2970 O.2    47  TRP47      -0.2867
     17  CB       -18.0300   42.7490   -3.3270 C.3    47  TRP47       0.0550
     18  CG       -19.1880   42.6220   -4.2680 C.ar   47  TRP47       0.0003
     19  CD1      -20.3590   43.3010   -4.1620 C.ar   47  TRP47       0.0946
     20  CD2      -19.3230   41.7310   -5.3630 C.ar   47  TRP47       0.0152
     21  NE1      -21.2130   42.9020   -5.1590 N.ar   47  TRP47      -0.2442
     22  CE2      -20.6250   41.9140   -5.8830 C.ar   47  TRP47       0.0810
     23  CE3      -18.4890   40.7940   -5.9650 C.ar   47  TRP47       0.0012
     24  CZ2      -21.1070   41.2050   -6.9690 C.ar   47  TRP47       0.0191
     25  CZ3      -18.9660   40.0770   -7.0500 C.ar   47  TRP47       0.0001
     26  CH2      -20.2720   40.2940   -7.5410 C.ar   47  TRP47       0.0015
     27  N        -24.2270   39.2120   -6.0650 N.3    50  TRP50      -0.1241
     28  CA       -25.1470   40.1320   -6.7050 C.3    50  TRP50       0.1605
     29  C        -26.4630   39.4480   -7.0530 C.2    50  TRP50       0.2264
     30  O        -26.5740   38.2190   -7.1570 O.2    50  TRP50      -0.2867
     31  CB       -24.3660   40.7390   -7.8710 C.3    50  TRP50       0.0550
     32  CG       -25.0990   41.3260   -9.0480 C.ar   50  TRP50       0.0003
     33  CD1      -26.1490   42.1940   -9.0030 C.ar   50  TRP50       0.0946
     34  CD2      -24.8280   41.0710  -10.4170 C.ar   50  TRP50       0.0152
     35  NE1      -26.5420   42.5030  -10.2760 N.ar   50  TRP50      -0.2442
     36  CE2      -25.7690   41.8170  -11.1660 C.ar   50  TRP50       0.0810
     37  CE3      -23.9030   40.2840  -11.0830 C.ar   50  TRP50       0.0012
     38  CZ2      -25.8040   41.7940  -12.5490 C.ar   50  TRP50       0.0191
     39  CZ3      -23.9310   40.2510  -12.4520 C.ar   50  TRP50       0.0001
     40  CH2      -24.8770   41.0020  -13.1750 C.ar   50  TRP50       0.0015
     41  N        -27.1430   48.3600   -7.1590 N.3    99  GLY99      -0.1210
     42  CA       -26.0790   48.3180   -8.1280 C.3    99  GLY99       0.1956
     43  C        -26.5660   48.8320   -9.4750 C.2    99  GLY99       0.2612
     44  O        -27.6320   48.4350   -9.9270 O.2    99  GLY99      -0.2717
     45  N        -25.7680   49.7010  -10.0950 N.am  100  ASP100     -0.1959
     46  CA       -26.0480   50.3270  -11.3860 C.3   100  ASP100      0.1840
     47  C        -25.3930   49.6710  -12.6220 C.2   100  ASP100      0.2622
     48  O        -24.1840   49.6310  -12.6790 O.2   100  ASP100     -0.2715
     49  CB       -25.5670   51.7670  -11.2480 C.3   100  ASP100      0.1450
     50  CG       -25.9190   52.6240  -12.4110 C.2   100  ASP100      0.3671
     51  OD1      -25.3250   52.4320  -13.4720 O.co2 100  ASP100     -0.2456
     52  OD2      -26.7810   53.5080  -12.2450 O.co2 100  ASP100     -0.2456
     53  N        -26.1750   49.1700  -13.5990 N.am  101  TYR101     -0.1974
     54  CA       -25.6610   48.5420  -14.8520 C.3   101  TYR101      0.1639
     55  C        -24.7720   49.3540  -15.7930 C.2   101  TYR101      0.2290
     56  O        -24.1080   48.7770  -16.6070 O.2   101  TYR101     -0.2864
     57  CB       -26.7990   48.0310  -15.7650 C.3   101  TYR101      0.0560
     58  CG       -27.6490   46.9210  -15.2180 C.ar  101  TYR101     -0.0198
     59  CD1      -27.1710   45.6350  -15.1290 C.ar  101  TYR101     -0.0009
     60  CD2      -28.9000   47.1830  -14.7070 C.ar  101  TYR101     -0.0009
     61  CE1      -27.9040   44.6400  -14.5000 C.ar  101  TYR101      0.0417
     62  CE2      -29.6350   46.1910  -14.0770 C.ar  101  TYR101      0.0417
     63  CZ       -29.1220   44.9280  -13.9620 C.ar  101  TYR101      0.1957
     64  OH       -29.8250   43.9860  -13.2460 O.3   101  TYR101     -0.2866
     65  N        -21.5350   50.9340  -13.0580 N.3   104  TRP104     -0.1227
     66  CA       -21.2090   49.8800  -12.1270 C.3   104  TRP104      0.1737
     67  C        -20.8470   50.3230  -10.7100 C.2   104  TRP104      0.2595
     68  O        -20.0230   49.6860  -10.0440 O.2   104  TRP104     -0.2718
     69  CB       -20.0900   49.0010  -12.6950 C.3   104  TRP104      0.0564
     70  CG       -20.3150   48.5110  -14.1300 C.ar  104  TRP104      0.0003
     71  CD1      -21.4730   48.6080  -14.8690 C.ar  104  TRP104      0.0946
     72  CD2      -19.3490   47.9120  -14.9770 C.ar  104  TRP104      0.0152
     73  NE1      -21.2670   48.1100  -16.1150 N.ar  104  TRP104     -0.2442
     74  CE2      -19.9770   47.6810  -16.2210 C.ar  104  TRP104      0.0810
     75  CE3      -18.0130   47.5440  -14.8220 C.ar  104  TRP104      0.0012
     76  CZ2      -19.2960   47.0980  -17.2970 C.ar  104  TRP104      0.0191
     77  CZ3      -17.3360   46.9630  -15.8820 C.ar  104  TRP104      0.0001
     78  CH2      -17.9770   46.7460  -17.1060 C.ar  104  TRP104      0.0015
     79  N        -21.4350   51.4140  -10.2280 N.am  105  TYR105     -0.1962
     80  CA       -21.1740   51.7950   -8.8530 C.3   105  TYR105      0.1771
     81  C        -22.2900   51.3290   -7.9580 C.2   105  TYR105      0.2619
     82  O        -23.2650   50.8050   -8.4630 O.2   105  TYR105     -0.2715
     83  CB       -20.9040   53.2820   -8.7400 C.3   105  TYR105      0.0574
     84  CG       -21.8700   54.2320   -9.3770 C.ar  105  TYR105     -0.0198
     85  CD1      -23.1680   54.3290   -8.9470 C.ar  105  TYR105     -0.0009
     86  CD2      -21.4530   55.1000  -10.3610 C.ar  105  TYR105     -0.0009
     87  CE1      -24.0080   55.2870   -9.4680 C.ar  105  TYR105      0.0417
     88  CE2      -22.2870   56.0600  -10.8810 C.ar  105  TYR105      0.0417
     89  CZ       -23.5510   56.1570  -10.4350 C.ar  105  TYR105      0.1957
     90  OH       -24.3570   57.1500  -10.9350 O.3   105  TYR105     -0.2866
     91  N        -22.1670   51.4890   -6.6480 N.am  106  PHE106     -0.1974
     92  CA       -23.2300   51.1180   -5.6980 C.3   106  PHE106      0.1639
     93  C        -23.6250   52.4640   -5.1000 C.2   106  PHE106      0.2290
     94  O        -22.8980   52.9650   -4.2460 O.2   106  PHE106     -0.2864
     95  CB       -22.7140   50.2190   -4.5370 C.3   106  PHE106      0.0560
     96  CG       -22.0290   48.9110   -4.9530 C.ar  106  PHE106     -0.0200
     97  CD1      -22.3910   48.2220   -6.0890 C.ar  106  PHE106     -0.0042
     98  CD2      -20.9910   48.3950   -4.1790 C.ar  106  PHE106     -0.0042
     99  CE1      -21.7260   47.0540   -6.4410 C.ar  106  PHE106     -0.0003
    100  CE2      -20.3200   47.2230   -4.5280 C.ar  106  PHE106     -0.0003
    101  CZ       -20.6880   46.5570   -5.6550 C.ar  106  PHE106     -0.0000
@<TRIPOS>BOND
     1    76    78   ar
     2    76    74   ar
     3    78    77   ar
     4    56    55    2
     5    74    73   ar
     6    74    72   ar
     7    73    71   ar
     8    77    75   ar
     9    55    54    1
    10    57    58    1
    11    57    54    1
    12    58    59   ar
    13    58    60   ar
    14    59    61   ar
    15    72    75   ar
    16    72    70   ar
    17    71    70   ar
    18    54    53    1
    19    60    62   ar
    20    61    63   ar
    21    70    69    1
    22    62    63   ar
    23    63    64    1
    24    53    47   am
    25    51    50   ar
    26    40    38   ar
    27    40    39   ar
    28    65    66    1
    29    69    66    1
    30    48    47    2
    31    47    46    1
    32    38    36   ar
    33    39    37   ar
    34    50    52   ar
    35    50    49    1
    36    66    67    1
    37    46    49    1
    38    46    45    1
    39    36    34   ar
    40    36    35   ar
    41    37    34   ar
    42    90    89    1
    43    88    89   ar
    44    88    86   ar
    45    67    79   am
    46    67    68    2
    47    89    87   ar
    48    34    32   ar
    49    86    84   ar
    50    35    33   ar
    51    79    80    1
    52    45    43   am
    53     1     2    1
    54    44    43    2
    55    43    42    1
    56    87    85   ar
    57     2     3    1
    58    84    85   ar
    59    84    83    1
    60    32    33   ar
    61    32    31    1
    62    80    83    1
    63    80    81    1
    64    82    81    2
    65    42    41    1
    66    81    91   am
    67     3     4    2
    68    31    28    1
    69    26    25   ar
    70    26    24   ar
    71    30    29    2
    72    29    28    1
    73    25    23   ar
    74    24    22   ar
    75    12    10   am
    76    11    10    2
    77    28    27    1
    78    91    92    1
    79    99    97   ar
    80    99   101   ar
    81    10     9    1
    82    97    96   ar
    83    23    20   ar
    84    22    20   ar
    85    22    21   ar
    86    92    93    1
    87    92    95    1
    88   101   100   ar
    89    20    18   ar
    90    21    19   ar
    91    93    94    2
    92    96    95    1
    93    96    98   ar
    94     9     6    1
    95     5     6    1
    96   100    98   ar
    97     6     7    1
    98    18    19   ar
    99    18    17    1
   100    17    14    1
   101     7     8    2
   102    16    15    2
   103    15    14    1
   104    14    13    1
