@<TRIPOS>MOLECULE
tmp/2dbtA00.pdb
 149 145 0 0 0
SMALL
GASTEIGER

@<TRIPOS>ATOM
      1  N         77.8030   12.5880    6.2940 N.3    57  HIS57      -0.1226
      2  CA        76.5160   11.9920    5.9750 C.3    57  HIS57       0.1752
      3  C         75.5030   13.0670    5.5750 C.2    57  HIS57       0.2595
      4  O         74.7940   12.9030    4.5930 O.2    57  HIS57      -0.2718
      5  CB        76.0000   11.1450    7.1290 C.3    57  HIS57       0.0759
      6  CG        74.5960   10.6850    6.9430 C.ar   57  HIS57       0.0818
      7  ND1       74.2830    9.4380    6.4510 N.ar   57  HIS57      -0.2268
      8  CD2       73.4140   11.3110    7.1610 C.ar   57  HIS57       0.1154
      9  CE1       72.9680    9.3070    6.3790 C.ar   57  HIS57       0.1986
     10  NE2       72.4160   10.4340    6.7980 N.ar   57  HIS57      -0.2212
     11  N         75.4610   14.1710    6.3260 N.am   58  GLU58      -0.1979
     12  CA        74.5210   15.2690    6.0650 C.3    58  GLU58       0.1602
     13  C         74.7060   15.9290    4.6940 C.2    58  GLU58       0.2287
     14  O         73.7500   16.4320    4.1070 O.2    58  GLU58      -0.2864
     15  CB        74.6180   16.3390    7.1620 C.3    58  GLU58       0.0415
     16  CG        74.1390   15.9070    8.5450 C.3    58  GLU58       0.1163
     17  CD        72.6630   15.5160    8.5980 C.2    58  GLU58       0.3649
     18  OE1       71.8450   16.0410    7.8010 O.co2  58  GLU58      -0.2457
     19  OE2       72.3180   14.6730    9.4560 O.co2  58  GLU58      -0.2457
     20  N         60.0250   23.9070    6.2950 N.3    76  TYR76      -0.1241
     21  CA        60.8840   24.1370    7.4680 C.3    76  TYR76       0.1605
     22  C         60.5730   25.4440    8.1790 C.2    76  TYR76       0.2264
     23  O         61.4560   26.0150    8.8300 O.2    76  TYR76      -0.2867
     24  CB        62.3580   24.1270    7.0860 C.3    76  TYR76       0.0534
     25  CG        62.7810   22.8790    6.3670 C.ar   76  TYR76      -0.0201
     26  CD1       62.9580   21.6660    7.0540 C.ar   76  TYR76      -0.0009
     27  CD2       63.0050   22.9060    4.9960 C.ar   76  TYR76      -0.0009
     28  CE1       63.3590   20.5150    6.3790 C.ar   76  TYR76       0.0417
     29  CE2       63.4100   21.7660    4.3150 C.ar   76  TYR76       0.0417
     30  CZ        63.5800   20.5790    5.0080 C.ar   76  TYR76       0.1957
     31  OH        63.9680   19.4840    4.2980 O.3    76  TYR76      -0.2866
     32  N         76.1420   20.8720    8.8200 N.3    98  ILE98      -0.1231
     33  CA        75.1810   20.0760    9.5910 C.3    98  ILE98       0.1692
     34  C         73.7780   20.1950    8.9980 C.2    98  ILE98       0.2592
     35  O         72.8010   19.6970    9.5770 O.2    98  ILE98      -0.2718
     36  CB        75.2350   20.3610   11.1330 C.3    98  ILE98       0.0266
     37  CG1       74.6930   19.1770   11.9160 C.3    98  ILE98       0.0019
     38  CG2       74.4780   21.6160   11.5240 C.3    98  ILE98       0.0020
     39  CD1       75.5750   17.9850   11.8730 C.3    98  ILE98       0.0001
     40  N         73.7070   20.8340    7.8230 N.am   99  GLN99      -0.1966
     41  CA        72.4470   21.1260    7.1250 C.3    99  GLN99       0.1733
     42  C         71.4320   21.7180    8.0560 C.2    99  GLN99       0.2616
     43  O         70.3610   21.1500    8.2460 O.2    99  GLN99      -0.2715
     44  CB        71.8710   19.8840    6.4690 C.3    99  GLN99       0.0408
     45  CG        72.6470   19.4880    5.2670 C.3    99  GLN99       0.0908
     46  CD        72.2570   20.3090    4.1030 C.2    99  GLN99       0.2608
     47  OE1       71.1080   20.2410    3.6660 O.2    99  GLN99      -0.2717
     48  NE2       73.1920   21.1090    3.5850 N.am   99  GLN99      -0.0878
     49  N         71.8040   22.8480    8.6500 N.am  100  LEU100     -0.1963
     50  CA        70.9630   23.5910    9.5590 C.3   100  LEU100      0.1728
     51  C         69.6570   23.9230    8.8770 C.2   100  LEU100      0.2617
     52  O         69.6570   24.4110    7.7530 O.2   100  LEU100     -0.2715
     53  CB        71.6820   24.8670    9.9370 C.3   100  LEU100      0.0311
     54  CG        70.9230   25.8850   10.7630 C.3   100  LEU100      0.0022
     55  CD1       70.8000   25.3680   12.1800 C.3   100  LEU100      0.0001
     56  CD2       71.6730   27.1900   10.7120 C.3   100  LEU100      0.0001
     57  N         68.5530   23.6480    9.5650 N.am  101  SER101     -0.1936
     58  CA        67.2020   23.7770    9.0060 C.3   101  SER101      0.2055
     59  C         66.1970   24.2050   10.0610 C.2   101  SER101      0.2643
     60  O         66.4320   24.0250   11.2600 O.2   101  SER101     -0.2714
     61  CB        66.7190   22.4380    8.4550 C.3   101  SER101      0.2130
     62  OG        67.7150   21.8060    7.6850 O.3   101  SER101     -0.2179
     63  N         65.0540   24.7130    9.6020 N.am  102  TRP102     -0.1973
     64  CA        63.9990   25.2350   10.4760 C.3   102  TRP102      0.1640
     65  C         64.2660   26.6600   10.9560 C.2   102  TRP102      0.2290
     66  O         65.3800   26.9950   11.4190 O.2   102  TRP102     -0.2864
     67  CB        63.7910   24.3340   11.6830 C.3   102  TRP102      0.0576
     68  CG        63.2700   23.0330   11.3060 C.ar  102  TRP102      0.0006
     69  CD1       63.9640   21.8580   11.2340 C.ar  102  TRP102      0.0946
     70  CD2       61.9210   22.7370   10.9220 C.ar  102  TRP102      0.0152
     71  NE1       63.1230   20.8440   10.8300 N.ar  102  TRP102     -0.2442
     72  CE2       61.8630   21.3590   10.6360 C.ar  102  TRP102      0.0810
     73  CE3       60.7540   23.5030   10.8020 C.ar  102  TRP102      0.0012
     74  CZ2       60.6760   20.7270   10.2330 C.ar  102  TRP102      0.0191
     75  CZ3       59.5770   22.8740   10.3960 C.ar  102  TRP102      0.0001
     76  CH2       59.5490   21.5030   10.1220 C.ar  102  TRP102      0.0015
     77  N         65.6770   26.9210   14.4010 N.3   105  ASN105     -0.1240
     78  CA        67.0940   26.5890   14.5730 C.3   105  ASN105      0.1653
     79  C         67.9990   27.6810   14.0430 C.2   105  ASN105      0.2266
     80  O         69.0920   27.8920   14.5460 O.2   105  ASN105     -0.2867
     81  CB        67.4360   25.2600   13.9100 C.3   105  ASN105      0.1155
     82  CG        67.4600   24.1090   14.8860 C.2   105  ASN105      0.2627
     83  OD1       66.4410   23.5060   15.2100 O.2   105  ASN105     -0.2716
     84  ND2       68.6450   23.7860   15.3510 N.am  105  ASN105     -0.0877
     85  N         75.4050   23.5370   16.5590 N.3   138  TYR138     -0.1241
     86  CA        74.5330   22.3830   16.7440 C.3   138  TYR138      0.1605
     87  C         75.2290   21.2810   17.5230 C.2   138  TYR138      0.2264
     88  O         74.7080   20.7700   18.5140 O.2   138  TYR138     -0.2867
     89  CB        74.0670   21.8150   15.3930 C.3   138  TYR138      0.0534
     90  CG        72.9100   20.8630   15.5730 C.ar  138  TYR138     -0.0201
     91  CD1       73.1290   19.5500   15.9900 C.ar  138  TYR138     -0.0009
     92  CD2       71.5830   21.2980   15.3900 C.ar  138  TYR138     -0.0009
     93  CE1       72.0570   18.6890   16.2060 C.ar  138  TYR138      0.0417
     94  CE2       70.5150   20.4410   15.5970 C.ar  138  TYR138      0.0417
     95  CZ        70.7600   19.1420   16.0060 C.ar  138  TYR138      0.1957
     96  OH        69.7290   18.2820   16.2120 O.3   138  TYR138     -0.2866
     97  N         71.0870   14.2610   16.4770 N.3   167  ILE167     -0.1231
     98  CA        71.1120   14.8810   15.1780 C.3   167  ILE167      0.1692
     99  C         69.8630   14.5470   14.3790 C.2   167  ILE167      0.2592
    100  O         69.3520   15.4080   13.6940 O.2   167  ILE167     -0.2718
    101  CB        72.3770   14.5430   14.4050 C.3   167  ILE167      0.0266
    102  CG1       73.5340   15.3370   14.9930 C.3   167  ILE167      0.0019
    103  CG2       72.2080   14.8560   12.9040 C.3   167  ILE167      0.0020
    104  CD1       74.8930   14.8250   14.6170 C.3   167  ILE167      0.0001
    105  N         69.3620   13.3170   14.4540 N.am  168  ASN168     -0.1974
    106  CA        68.1930   12.9520   13.6400 C.3   168  ASN168      0.1688
    107  C         67.2730   11.8550   14.2070 C.2   168  ASN168      0.2292
    108  O         66.1680   11.6410   13.6960 O.2   168  ASN168     -0.2864
    109  CB        68.6080   12.6630   12.1910 C.3   168  ASN168      0.1181
    110  CG        67.4480   12.7730   11.2240 C.2   168  ASN168      0.2629
    111  OD1       66.6620   13.7120   11.2670 O.2   168  ASN168     -0.2716
    112  ND2       67.3240   11.7940   10.3530 N.am  168  ASN168     -0.0877
    113  N         63.6470   10.4580   13.1230 N.3   171  LEU171     -0.1231
    114  CA        63.6020    9.7100   11.8550 C.3   171  LEU171      0.1693
    115  C         64.4680    8.4610   11.8150 C.2   171  LEU171      0.2591
    116  O         64.0500    7.4540   11.2530 O.2   171  LEU171     -0.2718
    117  CB        64.0100   10.5840   10.6730 C.3   171  LEU171      0.0284
    118  CG        63.0910   11.7410   10.3070 C.3   171  LEU171      0.0019
    119  CD1       63.5410   12.2910    8.9400 C.3   171  LEU171      0.0001
    120  CD2       61.5960   11.3440   10.3460 C.3   171  LEU171      0.0001
    121  N         65.6780    8.5200   12.3710 N.am  172  GLU172     -0.1979
    122  CA        66.6280    7.4210   12.1560 C.3   172  GLU172      0.1602
    123  C         66.6620    6.2780   13.1780 C.2   172  GLU172      0.2287
    124  O         66.6280    5.1320   12.7610 O.2   172  GLU172     -0.2864
    125  CB        68.0200    7.9520   11.8610 C.3   172  GLU172      0.0415
    126  CG        68.0920    8.6610   10.5360 C.3   172  GLU172      0.1163
    127  CD        69.4080    9.3580   10.3350 C.2   172  GLU172      0.3649
    128  OE1       70.4150    8.9080   10.9380 O.co2 172  GLU172     -0.2457
    129  OE2       69.4400   10.3550    9.5760 O.co2 172  GLU172     -0.2457
    130  N         70.3900    4.6940    7.2960 N.3   180  GLN180     -0.1245
    131  CA        71.0570    5.9580    7.5660 C.3   180  GLN180      0.1566
    132  C         71.9250    5.8910    8.7790 C.2   180  GLN180      0.2260
    133  O         73.0260    6.4240    8.7680 O.2   180  GLN180     -0.2867
    134  CB        70.0350    7.0440    7.6970 C.3   180  GLN180      0.0367
    135  CG        69.3680    7.2840    6.3780 C.3   180  GLN180      0.0905
    136  CD        68.6540    8.5820    6.3750 C.2   180  GLN180      0.2608
    137  OE1       67.4390    8.6280    6.1730 O.2   180  GLN180     -0.2717
    138  NE2       69.3930    9.6720    6.6460 N.am  180  GLN180     -0.0878
    139  N         76.0370    6.6410    8.8320 N.3   184  ARG184     -0.1245
    140  CA        76.6940    7.4040    9.8720 C.3   184  ARG184      0.1563
    141  C         77.8140    6.6040   10.5210 C.2   184  ARG184      0.2260
    142  O         78.9760    7.0330   10.4720 O.2   184  ARG184     -0.2867
    143  CB        75.6770    7.8960   10.8840 C.3   184  ARG184      0.0307
    144  CG        74.7600    8.9580   10.2970 C.3   184  ARG184      0.0489
    145  CD        73.9660    9.6380   11.3710 C.3   184  ARG184      0.2205
    146  NE        72.7250   10.1960   10.8670 N.pl3 184  ARG184     -0.0865
    147  CZ        72.6120   11.4190   10.3750 C.cat 184  ARG184      0.5346
    148  NH1       73.6830   12.1930   10.3140 N.pl3 184  ARG184      0.1354
    149  NH2       71.4330   11.8660    9.9460 N.pl3 184  ARG184      0.1354
@<TRIPOS>BOND
     1    48    46   am
     2    47    46    2
     3    46    45    1
     4    14    13    2
     5    31    30    1
     6    29    27   ar
     7    29    30   ar
     8     4     3    2
     9    13    12    1
    10    27    25   ar
    11    30    28   ar
    12    45    44    1
    13     3     2    1
    14     3    11   am
    15     2     1    1
    16     2     5    1
    17    12    11    1
    18    12    15    1
    19   137   136    2
    20    20    21    1
    21    25    26   ar
    22    25    24    1
    23   136   135    1
    24   136   138   am
    25   135   134    1
    26     9     7   ar
    27     9    10   ar
    28    28    26   ar
    29     7     6   ar
    30    44    41    1
    31    10     8   ar
    32     6     5    1
    33     6     8   ar
    34    24    21    1
    35    41    40    1
    36    41    42    1
    37    15    16    1
    38   130   131    1
    39    21    22    1
    40   131   134    1
    41   131   132    1
    42    62    61    1
    43    52    51    2
    44    18    17   ar
    45    40    34   am
    46    42    43    2
    47    42    49   am
    48    22    23    2
    49    61    58    1
    50    16    17    1
    51    17    19   ar
    52    49    50    1
    53   133   132    2
    54    32    33    1
    55   139   140    1
    56    51    50    1
    57    51    57   am
    58   119   118    1
    59    34    35    2
    60    34    33    1
    61    58    57    1
    62    58    59    1
    63    50    53    1
    64   129   127   ar
    65    33    36    1
    66    63    59   am
    67    63    64    1
    68   140   141    1
    69   140   143    1
    70    53    54    1
    71   149   147    1
    72    59    60    2
    73    76    74   ar
    74    76    75   ar
    75    74    72   ar
    76   144   143    1
    77   144   145    1
    78   118   120    1
    79   118   117    1
    80   148   147    1
    81   127   126    1
    82   127   128   ar
    83   112   110   am
    84   147   146    2
    85    75    73   ar
    86   142   141    2
    87    64    65    1
    88    64    67    1
    89   126   125    1
    90    72    71   ar
    91    72    70   ar
    92   117   114    1
    93    56    54    1
    94    54    55    1
    95    73    70   ar
    96    71    69   ar
    97   146   145    1
    98    70    68   ar
    99    65    66    2
   100    36    38    1
   101    36    37    1
   102   110   111    2
   103   110   109    1
   104    69    68   ar
   105   116   115    2
   106    68    67    1
   107   115   114    1
   108   115   121   am
   109   114   113    1
   110   125   122    1
   111    39    37    1
   112   122   121    1
   113   122   123    1
   114   109   106    1
   115   124   123    2
   116   103   101    1
   117   106   107    1
   118   106   105    1
   119   100    99    2
   120   108   107    2
   121    81    78    1
   122    81    82    1
   123    79    80    2
   124    79    78    1
   125    99   105   am
   126    99    98    1
   127    77    78    1
   128   101   102    1
   129   101    98    1
   130   104   102    1
   131    82    83    2
   132    82    84   am
   133    98    97    1
   134    92    90   ar
   135    92    94   ar
   136    89    90    1
   137    89    86    1
   138    90    91   ar
   139    94    95   ar
   140    91    93   ar
   141    95    93   ar
   142    95    96    1
   143    85    86    1
   144    86    87    1
   145    87    88    2
