@<TRIPOS>MOLECULE
tmp/2dbwB00.pdb
 79 71 0 0 0
SMALL
GASTEIGER

@<TRIPOS>ATOM
      1  N         14.1220  -33.8720  -31.2480 N.3     1  THR1       -0.1218
      2  CA        13.5960  -32.6200  -30.7110 C.3     1  THR1        0.1862
      3  C         13.7640  -31.5040  -31.7310 C.2     1  THR1        0.2287
      4  O         14.6590  -31.5490  -32.5720 O.2     1  THR1       -0.2866
      5  CB        14.3510  -32.1850  -29.4370 C.3     1  THR1        0.1770
      6  OG1       14.3100  -33.2380  -28.4640 O.3     1  THR1       -0.2211
      7  CG2       13.7240  -30.9190  -28.8450 C.3     1  THR1        0.0375
      8  N          9.0470  -32.7120  -29.0140 N.3    19  THR19      -0.1218
      9  CA         9.8380  -33.8180  -29.5280 C.3    19  THR19       0.1862
     10  C          9.2120  -35.2050  -29.3850 C.2    19  THR19       0.2287
     11  O          8.2140  -35.3820  -28.6910 O.2    19  THR19      -0.2866
     12  CB        11.1720  -33.8210  -28.7460 C.3    19  THR19       0.1770
     13  OG1       12.0010  -34.9100  -29.1590 O.3    19  THR19      -0.2211
     14  CG2       10.8860  -33.9540  -27.2460 C.3    19  THR19       0.0375
     15  N         11.4980  -37.3960  -28.7820 N.3    21  ASN21      -0.1240
     16  CA        12.7210  -37.7110  -28.0360 C.3    21  ASN21       0.1653
     17  C         13.7990  -37.9640  -29.0880 C.2    21  ASN21       0.2266
     18  O         14.2820  -37.0090  -29.6920 O.2    21  ASN21      -0.2867
     19  CB        12.5970  -38.9210  -27.0980 C.3    21  ASN21       0.1155
     20  CG        13.8770  -39.1480  -26.2930 C.2    21  ASN21       0.2627
     21  OD1       14.6920  -38.2360  -26.1510 O.2    21  ASN21      -0.2716
     22  ND2       14.0530  -40.3540  -25.7600 N.am   21  ASN21      -0.0877
     23  N          9.8680  -41.2060  -25.1550 N.3    40  GLN40      -0.1245
     24  CA        10.1610  -40.2920  -24.0540 C.3    40  GLN40       0.1566
     25  C         10.4220  -40.9870  -22.7190 C.2    40  GLN40       0.2260
     26  O         11.0240  -40.3980  -21.8250 O.2    40  GLN40      -0.2867
     27  CB         9.0090  -39.2960  -23.8750 C.3    40  GLN40       0.0367
     28  CG         9.4610  -37.8610  -23.6520 C.3    40  GLN40       0.0905
     29  CD        10.0240  -37.2310  -24.9170 C.2    40  GLN40       0.2608
     30  OE1       11.1660  -36.7750  -24.9440 O.2    40  GLN40      -0.2717
     31  NE2        9.2180  -37.2070  -25.9720 N.am   40  GLN40      -0.0878
     32  N         13.6620  -40.8570  -20.7590 N.3    42  ASP42      -0.1239
     33  CA        14.0750  -39.6690  -20.0170 C.3    42  ASP42       0.1674
     34  C         13.9450  -39.8740  -18.5110 C.2    42  ASP42       0.2266
     35  O         14.4410  -39.0720  -17.7250 O.2    42  ASP42      -0.2867
     36  CB        13.2830  -38.4330  -20.4550 C.3    42  ASP42       0.1410
     37  CG        13.8190  -37.8250  -21.7430 C.2    42  ASP42       0.3668
     38  OD1       14.9560  -38.1630  -22.1390 O.co2  42  ASP42      -0.2456
     39  OD2       13.1090  -36.9990  -22.3550 O.co2  42  ASP42      -0.2456
     40  N         21.3640  -39.9050  -23.1370 N.3    53  TYR53      -0.1241
     41  CA        22.0960  -38.6390  -23.1600 C.3    53  TYR53       0.1605
     42  C         23.1780  -38.5600  -22.0940 C.2    53  TYR53       0.2264
     43  O         23.8180  -37.5200  -21.9290 O.2    53  TYR53      -0.2867
     44  CB        21.1310  -37.4620  -22.9900 C.3    53  TYR53       0.0534
     45  CG        20.0670  -37.4210  -24.0590 C.ar   53  TYR53      -0.0201
     46  CD1       20.4050  -37.2050  -25.3950 C.ar   53  TYR53      -0.0009
     47  CD2       18.7280  -37.6550  -23.7450 C.ar   53  TYR53      -0.0009
     48  CE1       19.4340  -37.2290  -26.3950 C.ar   53  TYR53       0.0417
     49  CE2       17.7470  -37.6840  -24.7400 C.ar   53  TYR53       0.0417
     50  CZ        18.1100  -37.4730  -26.0610 C.ar   53  TYR53       0.1957
     51  OH        17.1540  -37.5320  -27.0490 O.3    53  TYR53      -0.2866
     52  N         12.6650  -33.4240  -18.2920 N.3    71  SER71      -0.1202
     53  CA        13.1380  -32.9630  -19.5880 C.3    71  SER71       0.2020
     54  C         14.2330  -31.9210  -19.4080 C.2    71  SER71       0.2619
     55  O         14.4580  -31.4290  -18.3020 O.2    71  SER71      -0.2717
     56  CB        11.9800  -32.3490  -20.3830 C.3    71  SER71       0.2103
     57  OG        12.4320  -31.8430  -21.6290 O.3    71  SER71      -0.2182
     58  N         14.9160  -31.6000  -20.5010 N.am   72  SER72      -0.1951
     59  CA        15.9650  -30.5880  -20.4880 C.3    72  SER72       0.1924
     60  C         15.5540  -29.4720  -21.4440 C.2    72  SER72       0.2314
     61  O         16.2680  -28.4820  -21.5880 O.2    72  SER72      -0.2863
     62  CB        17.3060  -31.1720  -20.9520 C.3    72  SER72       0.2116
     63  OG        17.7790  -32.1770  -20.0680 O.3    72  SER72      -0.2180
     64  N         18.6550  -31.1130  -28.4850 N.3    91  GLY91      -0.1210
     65  CA        19.9820  -31.5090  -28.0410 C.3    91  GLY91       0.1956
     66  C         20.0450  -32.3400  -26.7760 C.2    91  GLY91       0.2612
     67  O         21.1250  -32.5210  -26.2030 O.2    91  GLY91      -0.2717
     68  N         18.9000  -32.8550  -26.3400 N.am   92  GLY92      -0.1956
     69  CA        18.8750  -33.6570  -25.1310 C.3    92  GLY92       0.1869
     70  C         19.5100  -32.9260  -23.9640 C.2    92  GLY92       0.2309
     71  O         19.1200  -31.8090  -23.6370 O.2    92  GLY92      -0.2863
     72  N         20.7670  -29.2080  -24.4260 N.3    95  ILE95      -0.1245
     73  CA        19.8640  -28.0670  -24.5880 C.3    95  ILE95       0.1561
     74  C         20.1800  -26.9600  -23.5850 C.2    95  ILE95       0.2260
     75  O         20.2520  -25.7810  -23.9370 O.2    95  ILE95      -0.2867
     76  CB        18.3920  -28.4880  -24.3930 C.3    95  ILE95       0.0252
     77  CG1       17.9610  -29.4130  -25.5340 C.3    95  ILE95       0.0019
     78  CG2       17.5000  -27.2440  -24.3220 C.3    95  ILE95       0.0019
     79  CD1       16.5420  -29.9440  -25.4010 C.3    95  ILE95       0.0001
@<TRIPOS>BOND
     1     4     3    2
     2     3     2    1
     3     1     2    1
     4     2     5    1
     5    18    17    2
     6     9    10    1
     7     9     8    1
     8     9    12    1
     9     5     7    1
    10     5     6    1
    11    10    11    2
    12    13    12    1
    13    17    16    1
    14    15    16    1
    15    12    14    1
    16    64    65    1
    17    65    66    1
    18    16    19    1
    19    19    20    1
    20    51    50    1
    21    66    68   am
    22    66    67    2
    23    48    50   ar
    24    48    46   ar
    25    68    69    1
    26    20    21    2
    27    20    22   am
    28    50    49   ar
    29    31    29   am
    30    77    79    1
    31    77    76    1
    32    46    45   ar
    33    23    24    1
    34    69    70    1
    35    30    29    2
    36    29    28    1
    37    49    47   ar
    38    73    72    1
    39    73    76    1
    40    73    74    1
    41    76    78    1
    42    45    47   ar
    43    45    44    1
    44    24    27    1
    45    24    25    1
    46    70    71    2
    47    75    74    2
    48    27    28    1
    49    41    40    1
    50    41    44    1
    51    41    42    1
    52    25    26    2
    53    39    37   ar
    54    38    37   ar
    55    42    43    2
    56    37    36    1
    57    57    56    1
    58    61    60    2
    59    60    59    1
    60    62    59    1
    61    62    63    1
    62    32    33    1
    63    58    59    1
    64    58    54   am
    65    36    33    1
    66    56    53    1
    67    33    34    1
    68    53    54    1
    69    53    52    1
    70    54    55    2
    71    34    35    2
