@<TRIPOS>MOLECULE
tmp/2dbyA00.pdb
 129 126 0 0 0
SMALL
GASTEIGER

@<TRIPOS>ATOM
      1  N         21.9840   32.1010   30.6150 N.3     8  LEU8       -0.1231
      2  CA        22.7480   30.8640   30.6080 C.3     8  LEU8        0.1678
      3  C         22.5060   30.3010   29.2000 C.2     8  LEU8        0.2434
      4  O         21.7860   30.9000   28.4020 O.2     8  LEU8       -0.2733
      5  CB        22.2460   29.9270   31.7100 C.3     8  LEU8        0.0284
      6  CG        22.4160   30.4740   33.1410 C.3     8  LEU8        0.0019
      7  CD1       22.1690   29.3650   34.1570 C.3     8  LEU8        0.0001
      8  CD2       23.8040   31.0650   33.3150 C.3     8  LEU8        0.0001
      9  N         23.1200   29.1620   28.8570 N.am    9  PRO9       -0.2718
     10  CA        22.9150   28.6010   27.5180 C.3     9  PRO9        0.1535
     11  C         21.5110   28.2740   27.0350 C.2     9  PRO9        0.2599
     12  O         20.6440   27.7920   27.7800 O.2     9  PRO9       -0.2715
     13  CB        23.8010   27.3510   27.5330 C.3     9  PRO9        0.0310
     14  CG        24.9600   27.8100   28.3760 C.3     9  PRO9        0.0237
     15  CD        24.2680   28.5220   29.5310 C.3     9  PRO9        0.0939
     16  N         21.3060   28.5360   25.7520 N.am   10  ASN10      -0.1959
     17  CA        20.0500   28.2390   25.0800 C.3    10  ASN10       0.1819
     18  C         18.7580   28.7690   25.7040 C.2    10  ASN10       0.2621
     19  O         17.8370   28.0000   25.9810 O.2    10  ASN10      -0.2715
     20  CB        19.9630   26.7150   24.8840 C.3    10  ASN10       0.1195
     21  CG        21.2220   26.1540   24.2250 C.2    10  ASN10       0.2630
     22  OD1       21.9960   25.4170   24.8480 O.2    10  ASN10      -0.2716
     23  ND2       21.4440   26.5230   22.9660 N.am   10  ASN10      -0.0877
     24  N         18.6920   30.0780   25.9300 N.am   11  VAL11      -0.1963
     25  CA        17.4820   30.6820   26.4830 C.3    11  VAL11       0.1727
     26  C         16.9030   31.7060   25.4970 C.2    11  VAL11       0.2617
     27  O         15.8780   32.3390   25.7740 O.2    11  VAL11      -0.2715
     28  CB        17.7590   31.3600   27.8380 C.3    11  VAL11       0.0290
     29  CG1       18.3630   30.3210   28.8050 C.3    11  VAL11       0.0023
     30  CG2       18.7430   32.5260   27.6840 C.3    11  VAL11       0.0023
     31  N         17.5640   31.8470   24.3450 N.am   12  GLY12      -0.1940
     32  CA        17.1100   32.7910   23.3330 C.3    12  GLY12       0.2014
     33  C         17.8520   34.1020   23.3480 C.2    12  GLY12       0.2639
     34  O         17.4590   35.0570   22.6670 O.2    12  GLY12      -0.2714
     35  N         18.9350   34.1850   24.1150 N.am   13  LYS13      -0.1963
     36  CA        19.6690   35.4500   24.1710 C.3    13  LYS13       0.1728
     37  C         20.2960   35.8920   22.8310 C.2    13  LYS13       0.2617
     38  O         20.2110   37.0650   22.4730 O.2    13  LYS13      -0.2715
     39  CB        20.7650   35.4070   25.2570 C.3    13  LYS13       0.0311
     40  CG        21.3470   36.7690   25.5820 C.3    13  LYS13       0.0038
     41  CD        22.3260   36.7280   26.7500 C.3    13  LYS13       0.0206
     42  CE        23.5800   35.9900   26.3700 C.3    13  LYS13       0.1093
     43  NZ        24.7590   36.6200   27.0110 N.3    13  LYS13      -0.1314
     44  N         20.9210   34.9780   22.0820 N.am   14  SER14      -0.1936
     45  CA        21.5370   35.4280   20.8330 C.3    14  SER14       0.2055
     46  C         20.4590   35.8620   19.8500 C.2    14  SER14       0.2643
     47  O         20.6710   36.7680   19.0700 O.2    14  SER14      -0.2714
     48  CB        22.3940   34.3250   20.2080 C.3    14  SER14       0.2130
     49  OG        21.6170   33.1830   19.9580 O.3    14  SER14      -0.2179
     50  N         19.2940   35.2300   19.9320 N.am   15  THR15      -0.1950
     51  CA        18.1760   35.5770   19.0650 C.3    15  THR15       0.1897
     52  C         17.7290   36.9860   19.4230 C.2    15  THR15       0.2313
     53  O         17.5260   37.8210   18.5440 O.2    15  THR15      -0.2863
     54  CB        17.0190   34.5960   19.2580 C.3    15  THR15       0.1794
     55  OG1       17.4490   33.2930   18.8470 O.3    15  THR15      -0.2208
     56  CG2       15.8010   35.0190   18.4170 C.3    15  THR15       0.0378
     57  N         14.3150   31.2780   29.9040 N.3   107  ARG107     -0.1245
     58  CA        13.4760   30.5680   28.9530 C.3   107  ARG107      0.1563
     59  C         12.1700   30.0680   29.5870 C.2   107  ARG107      0.2260
     60  O         12.1890   29.3090   30.5750 O.2   107  ARG107     -0.2867
     61  CB        14.2650   29.3990   28.3360 C.3   107  ARG107      0.0307
     62  CG        13.3720   28.3810   27.6330 C.3   107  ARG107      0.0489
     63  CD        14.1730   27.4460   26.7480 C.3   107  ARG107      0.2205
     64  NE        14.8360   28.2160   25.7100 N.pl3 107  ARG107     -0.0865
     65  CZ        15.2430   27.7240   24.5460 C.cat 107  ARG107      0.5346
     66  NH1       15.0540   26.4420   24.2570 N.pl3 107  ARG107      0.1354
     67  NH2       15.8430   28.5200   23.6710 N.pl3 107  ARG107      0.1354
     68  N          9.4850   28.7020   27.5540 N.3   109  PHE109     -0.1241
     69  CA         8.7350   27.9280   26.5470 C.3   109  PHE109      0.1605
     70  C          9.5840   26.7100   26.1800 C.2   109  PHE109      0.2264
     71  O         10.7950   26.7190   26.3770 O.2   109  PHE109     -0.2867
     72  CB         8.4940   28.7610   25.2920 C.3   109  PHE109      0.0534
     73  CG         9.7480   29.1050   24.5660 C.ar  109  PHE109     -0.0203
     74  CD1       10.3800   28.1600   23.7580 C.ar  109  PHE109     -0.0042
     75  CD2       10.3650   30.3280   24.7780 C.ar  109  PHE109     -0.0042
     76  CE1       11.6130   28.4260   23.1840 C.ar  109  PHE109     -0.0003
     77  CE2       11.6000   30.6080   24.2100 C.ar  109  PHE109     -0.0003
     78  CZ        12.2290   29.6550   23.4140 C.ar  109  PHE109     -0.0000
     79  N         11.3350   34.9110   28.2630 N.3   197  ASN197     -0.1225
     80  CA        11.2590   34.6260   26.8230 C.3   197  ASN197      0.1785
     81  C         10.1840   33.5640   26.6300 C.2   197  ASN197      0.2597
     82  O         10.2850   32.4620   27.1750 O.2   197  ASN197     -0.2718
     83  CB        12.6060   34.1180   26.3100 C.3   197  ASN197      0.1169
     84  CG        12.6610   34.0530   24.7960 C.2   197  ASN197      0.2627
     85  OD1       11.8170   34.6420   24.1000 O.2   197  ASN197     -0.2716
     86  ND2       13.6490   33.3580   24.2750 N.am  197  ASN197     -0.0877
     87  N          9.1560   33.9040   25.8630 N.am  198  VAL198     -0.1966
     88  CA         8.0470   32.9990   25.6430 C.3   198  VAL198      0.1727
     89  C          7.7410   32.8050   24.1590 C.2   198  VAL198      0.2616
     90  O          8.2770   33.5120   23.3080 O.2   198  VAL198     -0.2715
     91  CB         6.7340   33.5410   26.2940 C.3   198  VAL198      0.0290
     92  CG1        6.9120   33.6590   27.7990 C.3   198  VAL198      0.0023
     93  CG2        6.3650   34.9350   25.7240 C.3   198  VAL198      0.0023
     94  N          6.8830   31.8300   23.8760 N.am  199  ALA199     -0.1963
     95  CA         6.4280   31.6080   22.5070 C.3   199  ALA199      0.1728
     96  C          5.4820   32.7950   22.2500 C.2   199  ALA199      0.2616
     97  O          4.8230   33.2710   23.1730 O.2   199  ALA199     -0.2715
     98  CB         5.6680   30.2910   22.4210 C.3   199  ALA199      0.0334
     99  N          5.3750   33.2540   21.0020 N.am  200  GLU200     -0.1977
    100  CA         4.5350   34.4160   20.6960 C.3   200  GLU200      0.1602
    101  C          3.0830   34.3570   21.1700 C.2   200  GLU200      0.2287
    102  O          2.5070   35.4020   21.4940 O.2   200  GLU200     -0.2864
    103  CB         4.5720   34.7090   19.1920 C.3   200  GLU200      0.0415
    104  CG         4.3040   33.5100   18.3240 C.3   200  GLU200      0.1163
    105  CD         4.7760   33.7240   16.8870 C.2   200  GLU200      0.3649
    106  OE1        5.8640   34.3130   16.6890 O.co2 200  GLU200     -0.2457
    107  OE2        4.0700   33.2830   15.9680 O.co2 200  GLU200     -0.2457
    108  N          8.9930   37.6700   23.1400 N.3   230  SER230     -0.1202
    109  CA         9.2900   36.4800   22.3490 C.3   230  SER230      0.2020
    110  C         10.5140   36.9390   21.5360 C.2   230  SER230      0.2619
    111  O         10.3780   37.7580   20.6180 O.2   230  SER230     -0.2717
    112  CB         8.1580   36.1380   21.3690 C.3   230  SER230      0.2103
    113  OG         8.6520   35.2020   20.4330 O.3   230  SER230     -0.2182
    114  N         11.7020   36.4390   21.8720 N.am  231  ALA231     -0.1965
    115  CA        12.9260   36.8240   21.1690 C.3   231  ALA231      0.1728
    116  C         12.8000   36.5210   19.6870 C.2   231  ALA231      0.2616
    117  O         13.2300   37.2970   18.8420 O.2   231  ALA231     -0.2715
    118  CB        14.1340   36.0540   21.7440 C.3   231  ALA231      0.0334
    119  N         12.2470   35.3630   19.3630 N.am  232  ARG232     -0.1977
    120  CA        12.1070   35.0310   17.9530 C.3   232  ARG232      0.1597
    121  C         11.2320   36.0460   17.2240 C.2   232  ARG232      0.2287
    122  O         11.5620   36.4910   16.1160 O.2   232  ARG232     -0.2864
    123  CB        11.5130   33.6340   17.7840 C.3   232  ARG232      0.0334
    124  CG        11.3560   33.2380   16.3310 C.3   232  ARG232      0.0492
    125  CD        11.0260   31.7750   16.1790 C.3   232  ARG232      0.2205
    126  NE        10.6580   31.4700   14.7990 N.pl3 232  ARG232     -0.0865
    127  CZ        10.3000   30.2650   14.3720 C.cat 232  ARG232      0.5346
    128  NH1       10.2670   29.2480   15.2260 N.pl3 232  ARG232      0.1354
    129  NH2        9.9660   30.0810   13.0980 N.pl3 232  ARG232      0.1354
@<TRIPOS>BOND
     1   129   127    1
     2   127   126    2
     3   127   128    1
     4   126   125    1
     5   107   105   ar
     6   122   121    2
     7   125   124    1
     8   124   123    1
     9   106   105   ar
    10   105   104    1
    11   121   120    1
    12   123   120    1
    13   120   119    1
    14   104   103    1
    15    56    54    1
    16    53    52    2
    17   117   116    2
    18    55    54    1
    19    51    54    1
    20    51    52    1
    21    51    50    1
    22    47    46    2
    23   103   100    1
    24   119   116   am
    25   116   115    1
    26    46    50   am
    27    46    45    1
    28    49    48    1
    29    48    45    1
    30   113   112    1
    31   111   110    2
    32   100    99    1
    33   100   101    1
    34    45    44    1
    35    99    96   am
    36   115   118    1
    37   115   114    1
    38   101   102    2
    39   112   109    1
    40   110   114   am
    41   110   109    1
    42    44    37   am
    43    96    95    1
    44    96    97    2
    45   109   108    1
    46    98    95    1
    47    38    37    2
    48    95    94    1
    49    34    33    2
    50    37    36    1
    51    23    21   am
    52    76    78   ar
    53    76    74   ar
    54    90    89    2
    55    32    33    1
    56    32    31    1
    57    33    35   am
    58    78    77   ar
    59    67    65    1
    60    74    73   ar
    61    94    89   am
    62    85    84    2
    63    35    36    1
    64    89    88    1
    65    36    39    1
    66    77    75   ar
    67    21    22    2
    68    21    20    1
    69    66    65    1
    70    86    84   am
    71    31    26   am
    72    65    64    2
    73    73    75   ar
    74    73    72    1
    75    84    83    1
    76    20    17    1
    77    17    18    1
    78    17    16    1
    79    39    40    1
    80    72    69    1
    81    26    27    2
    82    26    25    1
    83    40    41    1
    84    88    87    1
    85    88    91    1
    86    18    24   am
    87    18    19    2
    88    64    63    1
    89    93    91    1
    90    16    11   am
    91    87    81   am
    92    24    25    1
    93    70    71    2
    94    70    69    1
    95    91    92    1
    96    83    80    1
    97    42    41    1
    98    42    43    1
    99    25    28    1
   100    69    68    1
   101    81    80    1
   102    81    82    2
   103    63    62    1
   104    80    79    1
   105    11    10    1
   106    11    12    2
   107    10    13    1
   108    10     9    1
   109    13    14    1
   110    62    61    1
   111    30    28    1
   112    28    29    1
   113    61    58    1
   114    14    15    1
   115     4     3    2
   116     9     3   am
   117     9    15    1
   118    58    59    1
   119    58    57    1
   120     3     2    1
   121    59    60    2
   122     2     1    1
   123     2     5    1
   124     5     6    1
   125     6     8    1
   126     6     7    1
