@<TRIPOS>MOLECULE
tmp/2dc1B00.pdb
 99 93 0 0 0
SMALL
GASTEIGER

@<TRIPOS>ATOM
      1  N         28.1500   16.3780   15.2440 N.3   111  ALA111     -0.1245
      2  CA        27.7700   14.9630   15.1430 C.3   111  ALA111      0.1562
      3  C         27.7060   14.1810   16.4610 C.2   111  ALA111      0.2260
      4  O         27.5820   12.9560   16.4560 O.2   111  ALA111     -0.2867
      5  CB        28.7120   14.2480   14.1550 C.3   111  ALA111      0.0290
      6  N         34.7200    5.0830   11.3940 N.3   134  LYS134     -0.1245
      7  CA        34.3230    5.6500   10.1010 C.3   134  LYS134      0.1561
      8  C         34.5710    4.6610    8.9760 C.2   134  LYS134      0.2260
      9  O         35.2980    3.6850    9.1530 O.2   134  LYS134     -0.2867
     10  CB        35.1360    6.9070    9.7920 C.3   134  LYS134      0.0271
     11  CG        34.8590    8.0890   10.6890 C.3   134  LYS134      0.0035
     12  CD        35.7770    9.2450   10.3320 C.3   134  LYS134      0.0206
     13  CE        35.4550   10.4640   11.1690 C.3   134  LYS134      0.1093
     14  NZ        36.4600   11.5430   10.9680 N.3   134  LYS134     -0.1314
     15  N         42.0520   19.5270    9.3130 N.3   159  LYS159     -0.1231
     16  CA        40.7420   19.7250    8.7060 C.3   159  LYS159      0.1693
     17  C         39.7320   18.6000    8.9600 C.2   159  LYS159      0.2592
     18  O         38.7060   18.5160    8.2850 O.2   159  LYS159     -0.2718
     19  CB        40.9130   19.9540    7.1960 C.3   159  LYS159      0.0285
     20  CG        41.7240   21.2140    6.8690 C.3   159  LYS159      0.0035
     21  CD        41.6570   21.6040    5.3960 C.3   159  LYS159      0.0206
     22  CE        42.4940   20.6910    4.5330 C.3   159  LYS159      0.1093
     23  NZ        41.9360   19.3160    4.4670 N.3   159  LYS159     -0.1314
     24  N         40.0160   17.7410    9.9320 N.am  160  ASN160     -0.1960
     25  CA        39.1120   16.6450   10.2640 C.3   160  ASN160      0.1819
     26  C         38.9630   16.4830   11.7810 C.2   160  ASN160      0.2621
     27  O         39.5820   17.2090   12.5540 O.2   160  ASN160     -0.2715
     28  CB        39.6240   15.3400    9.6500 C.3   160  ASN160      0.1195
     29  CG        39.5610   15.3490    8.1340 C.2   160  ASN160      0.2630
     30  OD1       38.4840   15.2400    7.5430 O.2   160  ASN160     -0.2716
     31  ND2       40.7190   15.4910    7.4940 N.am  160  ASN160     -0.0877
     32  N         38.1250   15.5350   12.1910 N.am  161  LEU161     -0.1963
     33  CA        37.8890   15.2470   13.6050 C.3   161  LEU161      0.1728
     34  C         37.5800   16.4560   14.4880 C.2   161  LEU161      0.2616
     35  O         38.1980   16.6450   15.5370 O.2   161  LEU161     -0.2715
     36  CB        39.0880   14.4900   14.1850 C.3   161  LEU161      0.0311
     37  CG        39.3790   13.1320   13.5460 C.3   161  LEU161      0.0022
     38  CD1       40.5860   12.4970   14.2280 C.3   161  LEU161      0.0001
     39  CD2       38.1580   12.2270   13.6730 C.3   161  LEU161      0.0001
     40  N         36.6180   17.2700   14.0710 N.am  162  ASN162     -0.1958
     41  CA        36.2370   18.4370   14.8520 C.3   162  ASN162      0.1819
     42  C         35.5720   18.0100   16.1620 C.2   162  ASN162      0.2621
     43  O         35.6270   18.7310   17.1540 O.2   162  ASN162     -0.2715
     44  CB        35.2850   19.3120   14.0380 C.3   162  ASN162      0.1195
     45  CG        35.9490   19.8880   12.8150 C.2   162  ASN162      0.2630
     46  OD1       36.7870   20.7770   12.9200 O.2   162  ASN162     -0.2716
     47  ND2       35.5940   19.3670   11.6430 N.am  162  ASN162     -0.0877
     48  N         34.9470   16.8340   16.1570 N.am  163  VAL163     -0.1977
     49  CA        34.2780   16.3100   17.3460 C.3   163  VAL163      0.1596
     50  C         35.2760   16.2170   18.5020 C.2   163  VAL163      0.2287
     51  O         34.9410   16.5250   19.6440 O.2   163  VAL163     -0.2864
     52  CB        33.6580   14.9130   17.0750 C.3   163  VAL163      0.0276
     53  CG1       33.4460   14.1610   18.3770 C.3   163  VAL163      0.0022
     54  CG2       32.3210   15.0720   16.3590 C.3   163  VAL163      0.0022
     55  N         29.3820    7.5180   10.3860 N.3   187  ASN187     -0.1240
     56  CA        30.3110    7.8210   11.4640 C.3   187  ASN187      0.1653
     57  C         29.6680    7.5020   12.8090 C.2   187  ASN187      0.2266
     58  O         28.6240    8.0490   13.1490 O.2   187  ASN187     -0.2867
     59  CB        30.7220    9.2960   11.4270 C.3   187  ASN187      0.1155
     60  CG        31.2300    9.7330   10.0590 C.2   187  ASN187      0.2627
     61  OD1       31.8060    8.9410    9.3130 O.2   187  ASN187     -0.2716
     62  ND2       31.0280   11.0050    9.7320 N.am  187  ASN187     -0.0877
     63  N         30.2080    7.6470   16.8190 N.3   189  HIS189     -0.1241
     64  CA        31.0300    8.2630   17.8530 C.3   189  HIS189      0.1621
     65  C         30.5900    7.7460   19.2150 C.2   189  HIS189      0.2264
     66  O         29.4020    7.7240   19.5130 O.2   189  HIS189     -0.2867
     67  CB        30.8830    9.7910   17.8240 C.3   189  HIS189      0.0745
     68  CG        31.2110   10.4120   16.5020 C.ar  189  HIS189      0.0817
     69  ND1       32.4670   10.3450   15.9380 N.ar  189  HIS189     -0.2268
     70  CD2       30.4420   11.1080   15.6300 C.ar  189  HIS189      0.1154
     71  CE1       32.4570   10.9720   14.7740 C.ar  189  HIS189      0.1986
     72  NE2       31.2400   11.4430   14.5640 N.ar  189  HIS189     -0.2212
     73  N         31.2940   12.3230    4.1720 N.3   214  LYS214     -0.1231
     74  CA        32.1380   12.4070    5.3540 C.3   214  LYS214      0.1693
     75  C         31.4620   13.1580    6.4930 C.2   214  LYS214      0.2593
     76  O         31.9150   13.1000    7.6320 O.2   214  LYS214     -0.2718
     77  CB        33.4690   13.0730    5.0080 C.3   214  LYS214      0.0285
     78  CG        34.3330   12.2380    4.0850 C.3   214  LYS214      0.0035
     79  CD        35.6670   12.9060    3.8140 C.3   214  LYS214      0.0206
     80  CE        36.5100   12.0600    2.8730 C.3   214  LYS214      0.1093
     81  NZ        37.8040   12.7220    2.5560 N.3   214  LYS214     -0.1314
     82  N         30.3660   13.8430    6.1830 N.am  215  THR215     -0.1939
     83  CA        29.6430   14.6180    7.1860 C.3   215  THR215      0.2028
     84  C         28.3630   13.9560    7.6720 C.2   215  THR215      0.2642
     85  O         27.5780   13.4240    6.8820 O.2   215  THR215     -0.2714
     86  CB        29.3190   16.0360    6.6390 C.3   215  THR215      0.1808
     87  OG1       30.5180   16.8210    6.6290 O.3   215  THR215     -0.2208
     88  CG2       28.2770   16.7390    7.4970 C.3   215  THR215      0.0379
     89  N         28.1560   14.0000    8.9840 N.am  216  SER216     -0.1949
     90  CA        26.9670   13.4250    9.5980 C.3   216  SER216      0.1924
     91  C         25.7920   14.3890    9.5080 C.2   216  SER216      0.2314
     92  O         25.9250   15.5760    9.7970 O.2   216  SER216     -0.2863
     93  CB        27.2290   13.1050   11.0690 C.3   216  SER216      0.2116
     94  OG        28.1690   12.0600   11.2100 O.3   216  SER216     -0.2180
     95  N         25.2170   16.8230   12.2630 N.3   219  ALA219     -0.1245
     96  CA        26.0310   18.0330   12.3290 C.3   219  ALA219      0.1562
     97  C         25.2770   19.2100   11.7190 C.2   219  ALA219      0.2260
     98  O         25.3340   20.3210   12.2350 O.2   219  ALA219     -0.2867
     99  CB        27.3560   17.8240   11.6000 C.3   219  ALA219      0.0290
@<TRIPOS>BOND
     1    81    80    1
     2    80    79    1
     3    79    78    1
     4    78    77    1
     5    73    74    1
     6    23    22    1
     7    22    21    1
     8    77    74    1
     9    74    75    1
    10    21    20    1
    11    82    75   am
    12    82    83    1
    13    75    76    2
    14    87    86    1
    15    86    83    1
    16    86    88    1
    17    20    19    1
    18    85    84    2
    19    83    84    1
    20    19    16    1
    21    31    29   am
    22    30    29    2
    23    84    89   am
    24    29    28    1
    25    18    17    2
    26    16    17    1
    27    16    15    1
    28    17    24   am
    29     8     9    2
    30     8     7    1
    31    89    90    1
    32    61    60    2
    33    91    90    1
    34    91    92    2
    35    90    93    1
    36    28    25    1
    37    62    60   am
    38    10     7    1
    39    10    11    1
    40    24    25    1
    41    60    59    1
    42     7     6    1
    43    25    26    1
    44    12    11    1
    45    12    13    1
    46    55    56    1
    47    14    13    1
    48    93    94    1
    49    59    56    1
    50    56    57    1
    51    99    96    1
    52    47    45   am
    53    97    98    2
    54    97    96    1
    55    26    32   am
    56    26    27    2
    57    32    33    1
    58    95    96    1
    59    57    58    2
    60    45    46    2
    61    45    44    1
    62    37    39    1
    63    37    36    1
    64    37    38    1
    65    33    36    1
    66    33    34    1
    67    44    41    1
    68    40    34   am
    69    40    41    1
    70     5     2    1
    71    34    35    2
    72    72    71   ar
    73    72    70   ar
    74    71    69   ar
    75    41    42    1
    76     2     1    1
    77     2     3    1
    78    70    68   ar
    79    69    68   ar
    80    48    42   am
    81    48    49    1
    82    42    43    2
    83    54    52    1
    84     4     3    2
    85    68    67    1
    86    63    64    1
    87    52    49    1
    88    52    53    1
    89    49    50    1
    90    67    64    1
    91    64    65    1
    92    50    51    2
    93    65    66    2
