@<TRIPOS>MOLECULE
tmp/2dc3A00.pdb
 225 217 0 0 0
SMALL
GASTEIGER

@<TRIPOS>ATOM
      1  N         26.5880   -2.9940   30.7060 N.3    33  PHE33      -0.1227
      2  CA        25.6350   -4.0930   30.7490 C.3    33  PHE33       0.1736
      3  C         26.1640   -5.3190   29.9740 C.2    33  PHE33       0.2595
      4  O         26.2020   -6.4360   30.5110 O.2    33  PHE33      -0.2718
      5  CB        24.3310   -3.5830   30.1740 C.3    33  PHE33       0.0547
      6  CG        23.2800   -4.6040   29.9370 C.ar   33  PHE33      -0.0202
      7  CD1       22.7490   -5.3440   30.9540 C.ar   33  PHE33      -0.0042
      8  CD2       22.7720   -4.7630   28.6440 C.ar   33  PHE33      -0.0042
      9  CE1       21.7220   -6.2260   30.6910 C.ar   33  PHE33      -0.0003
     10  CE2       21.7320   -5.6690   28.3530 C.ar   33  PHE33      -0.0003
     11  CZ        21.2210   -6.4000   29.3800 C.ar   33  PHE33      -0.0000
     12  N         26.5940   -5.1130   28.7490 N.am   34  PHE34      -0.1976
     13  CA        27.0740   -6.2350   27.9120 C.3    34  PHE34       0.1639
     14  C         28.3870   -6.8140   28.4110 C.2    34  PHE34       0.2290
     15  O         28.6050   -8.0000   28.2590 O.2    34  PHE34      -0.2864
     16  CB        27.1480   -5.8250   26.4340 C.3    34  PHE34       0.0560
     17  CG        25.7780   -5.5320   25.8050 C.ar   34  PHE34      -0.0200
     18  CD1       24.7540   -6.4760   25.8140 C.ar   34  PHE34      -0.0042
     19  CD2       25.5340   -4.3170   25.1330 C.ar   34  PHE34      -0.0042
     20  CE1       23.5260   -6.2290   25.2090 C.ar   34  PHE34      -0.0003
     21  CE2       24.3150   -4.0450   24.5440 C.ar   34  PHE34      -0.0003
     22  CZ        23.3090   -4.9850   24.5660 C.ar   34  PHE34      -0.0000
     23  N         23.5260  -11.2740   27.2350 N.3    40  ALA40      -0.1245
     24  CA        22.5680  -10.3080   26.7360 C.3    40  ALA40       0.1562
     25  C         22.8450   -9.9040   25.2600 C.2    40  ALA40       0.2260
     26  O         21.9440   -9.4080   24.5820 O.2    40  ALA40      -0.2867
     27  CB        22.5220   -9.0720   27.6420 C.3    40  ALA40       0.0290
     28  N         21.0010  -11.1560   21.3430 N.3    43  TYR43      -0.1227
     29  CA        19.8980  -10.5370   20.5950 C.3    43  TYR43       0.1736
     30  C         20.3720   -9.6310   19.4920 C.2    43  TYR43       0.2595
     31  O         19.5590   -9.1710   18.7030 O.2    43  TYR43      -0.2718
     32  CB        18.9750   -9.7510   21.5310 C.3    43  TYR43       0.0548
     33  CG        18.4080  -10.6270   22.6240 C.ar   43  TYR43      -0.0200
     34  CD1       17.3950  -11.5360   22.3580 C.ar   43  TYR43      -0.0009
     35  CD2       18.8240  -10.4940   23.9220 C.ar   43  TYR43      -0.0009
     36  CE1       16.9230  -12.3960   23.3360 C.ar   43  TYR43       0.0417
     37  CE2       18.3340  -11.3320   24.9290 C.ar   43  TYR43       0.0417
     38  CZ        17.3740  -12.2600   24.6450 C.ar   43  TYR43       0.1957
     39  OH        16.8430  -13.0820   25.6280 O.3    43  TYR43      -0.2866
     40  N         21.6720   -9.3270   19.4780 N.am   44  PHE44      -0.1976
     41  CA        22.2330   -8.3030   18.6100 C.3    44  PHE44       0.1639
     42  C         23.2650   -8.9150   17.6660 C.2    44  PHE44       0.2290
     43  O         24.4350   -9.0880   17.9990 O.2    44  PHE44      -0.2864
     44  CB        22.9040   -7.2180   19.4450 C.3    44  PHE44       0.0560
     45  CG        21.9440   -6.4390   20.3220 C.ar   44  PHE44      -0.0200
     46  CD1       21.3250   -5.3090   19.8270 C.ar   44  PHE44      -0.0042
     47  CD2       21.6410   -6.8650   21.6200 C.ar   44  PHE44      -0.0042
     48  CE1       20.4170   -4.6140   20.6000 C.ar   44  PHE44      -0.0003
     49  CE2       20.7830   -6.1620   22.3950 C.ar   44  PHE44      -0.0003
     50  CZ        20.1730   -5.0370   21.9040 C.ar   44  PHE44      -0.0000
     51  N         25.1800   -0.8880   15.6840 N.3    61  GLN61      -0.1245
     52  CA        23.9670   -1.4790   16.2020 C.3    61  GLN61       0.1566
     53  C         23.8170   -1.1600   17.7080 C.2    61  GLN61       0.2260
     54  O         22.7130   -0.8630   18.1780 O.2    61  GLN61      -0.2867
     55  CB        23.9150   -2.9800   15.9320 C.3    61  GLN61       0.0367
     56  CG        22.6280   -3.6010   16.4040 C.3    61  GLN61       0.0905
     57  CD        22.5070   -5.0800   16.1220 C.2    61  GLN61       0.2608
     58  OE1       23.4970   -5.8250   16.2180 O.2    61  GLN61      -0.2717
     59  NE2       21.2800   -5.5270   15.8330 N.am   61  GLN61      -0.0878
     60  N         22.9230    2.6230   18.0670 N.3    64  LYS64      -0.1231
     61  CA        21.5370    2.8970   17.7010 C.3    64  LYS64       0.1693
     62  C         20.6160    2.5040   18.8530 C.2    64  LYS64       0.2592
     63  O         19.7190    3.2430   19.2110 O.2    64  LYS64      -0.2718
     64  CB        21.2020    2.1210   16.4510 C.3    64  LYS64       0.0285
     65  CG        21.8860    2.7100   15.2350 C.3    64  LYS64       0.0035
     66  CD        21.1230    2.4310   13.9080 C.3    64  LYS64       0.0206
     67  CE        20.4930    1.0060   13.9570 C.3    64  LYS64       0.1093
     68  NZ        19.3600    0.7340   14.9520 N.3    64  LYS64      -0.1314
     69  N         20.8580    1.3410   19.4620 N.am   65  HIS65      -0.1976
     70  CA        20.0230    0.9300   20.5930 C.3    65  HIS65       0.1656
     71  C         20.2170    1.8800   21.7340 C.2    65  HIS65       0.2291
     72  O         19.2490    2.1960   22.4380 O.2    65  HIS65      -0.2864
     73  CB        20.2960   -0.5210   21.0270 C.3    65  HIS65       0.0771
     74  CG        19.3050   -1.0850   21.9800 C.ar   65  HIS65       0.0820
     75  ND1       19.6300   -1.4640   23.2680 N.ar   65  HIS65      -0.2267
     76  CD2       17.9750   -1.2730   21.8560 C.ar   65  HIS65       0.1154
     77  CE1       18.5360   -1.9400   23.8610 C.ar   65  HIS65       0.1986
     78  NE2       17.5210   -1.8240   23.0200 N.ar   65  HIS65      -0.2212
     79  N         18.0800    4.8330   20.9950 N.3    68  ARG68      -0.1231
     80  CA        16.6390    4.4770   21.1210 C.3    68  ARG68       0.1694
     81  C         16.2220    4.2900   22.5810 C.2    68  ARG68       0.2591
     82  O         15.1680    4.7210   22.9980 O.2    68  ARG68      -0.2718
     83  CB        16.3430    3.2340   20.3220 C.3    68  ARG68       0.0321
     84  CG        16.4490    3.4110   18.8190 C.3    68  ARG68       0.0489
     85  CD        15.5220    4.4790   18.2540 C.3    68  ARG68       0.2205
     86  NE        14.0880    4.2210   18.4860 N.pl3  68  ARG68      -0.0865
     87  CZ        13.2560    3.6180   17.6460 C.cat  68  ARG68       0.5346
     88  NH1       13.6950    3.0630   16.5440 N.pl3  68  ARG68       0.1354
     89  NH2       11.9800    3.4980   17.9880 N.pl3  68  ARG68       0.1354
     90  N         17.0800    3.6260   23.3640 N.am   69  VAL69      -0.1980
     91  CA        16.8160    3.4600   24.7960 C.3    69  VAL69       0.1595
     92  C         16.6790    4.8090   25.4700 C.2    69  VAL69       0.2287
     93  O         15.7390    5.0610   26.2350 O.2    69  VAL69      -0.2864
     94  CB        17.8720    2.5780   25.4960 C.3    69  VAL69       0.0276
     95  CG1       17.7830    2.6570   26.9900 C.3    69  VAL69       0.0022
     96  CG2       17.7940    1.1250   25.0160 C.3    69  VAL69       0.0022
     97  N         13.3700    6.5450   24.4480 N.3    72  ALA72      -0.1231
     98  CA        12.2550    5.9250   25.0950 C.3    72  ALA72       0.1694
     99  C         12.1720    6.2570   26.5780 C.2    72  ALA72       0.2591
    100  O         11.1220    6.6690   27.0780 O.2    72  ALA72      -0.2718
    101  CB        12.2860    4.4740   24.8990 C.3    72  ALA72       0.0304
    102  N         13.2710    6.1310   27.2830 N.am   73  LEU73      -0.1980
    103  CA        13.3070    6.5190   28.6860 C.3    73  LEU73       0.1596
    104  C         13.0250    8.0120   28.8670 C.2    73  LEU73       0.2287
    105  O         12.3970    8.4440   29.8580 O.2    73  LEU73      -0.2864
    106  CB        14.6700    6.1640   29.2830 C.3    73  LEU73       0.0297
    107  CG        14.9600    4.6810   29.4380 C.3    73  LEU73       0.0022
    108  CD1       16.3160    4.4780   30.0700 C.3    73  LEU73       0.0001
    109  CD2       13.8500    4.0590   30.2950 C.3    73  LEU73       0.0001
    110  N          5.5920    2.3130   28.1540 N.3    90  LEU90      -0.1245
    111  CA         6.2740    1.1000   28.6010 C.3    90  LEU90       0.1561
    112  C          5.5690   -0.1570   28.0980 C.2    90  LEU90       0.2260
    113  O          6.2410   -1.1800   27.8420 O.2    90  LEU90      -0.2867
    114  CB         6.4630    1.1050   30.1180 C.3    90  LEU90       0.0270
    115  CG         7.4790    2.1760   30.5690 C.3    90  LEU90       0.0019
    116  CD1        7.4600    2.3780   32.0150 C.3    90  LEU90       0.0001
    117  CD2        8.8780    1.7590   30.1540 C.3    90  LEU90       0.0001
    118  N          6.9740   -0.6270   24.5410 N.3    93  VAL93      -0.1245
    119  CA         8.3370   -1.1260   24.6380 C.3    93  VAL93       0.1561
    120  C          8.3140   -2.6060   25.0900 C.2    93  VAL93       0.2260
    121  O          8.9900   -3.4700   24.5140 O.2    93  VAL93      -0.2867
    122  CB         9.1600   -0.3270   25.6460 C.3    93  VAL93       0.0252
    123  CG1       10.4710   -0.9700   25.8890 C.3    93  VAL93       0.0019
    124  CG2        9.3180    1.1070   25.1630 C.3    93  VAL93       0.0019
    125  N          6.9540   -5.0520   22.3350 N.3    96  ALA96      -0.1231
    126  CA         7.9030   -5.1930   21.2400 C.3    96  ALA96       0.1694
    127  C          9.0350   -6.1050   21.6450 C.2    96  ALA96       0.2592
    128  O          9.4630   -6.9660   20.8830 O.2    96  ALA96      -0.2718
    129  CB         8.4390   -3.8620   20.8580 C.3    96  ALA96       0.0304
    130  N          9.5140   -5.9390   22.8490 N.am   97  HIS97      -0.1976
    131  CA        10.6230   -6.7650   23.2930 C.3    97  HIS97       0.1656
    132  C         10.2080   -8.2010   23.5620 C.2    97  HIS97       0.2291
    133  O         10.9910   -9.1110   23.2960 O.2    97  HIS97      -0.2864
    134  CB        11.3790   -6.1430   24.4700 C.3    97  HIS97       0.0771
    135  CG        12.2030   -4.9450   24.0720 C.ar   97  HIS97       0.0820
    136  ND1       11.6540   -3.7110   23.7550 N.ar   97  HIS97      -0.2267
    137  CD2       13.5430   -4.7950   23.9620 C.ar   97  HIS97       0.1154
    138  CE1       12.6260   -2.8910   23.4000 C.ar   97  HIS97       0.1986
    139  NE2       13.7800   -3.5060   23.5600 N.ar   97  HIS97      -0.2212
    140  N          8.6810   -9.2460   19.3660 N.3   100  LYS100     -0.1231
    141  CA         9.5810   -9.0930   18.2290 C.3   100  LYS100      0.1693
    142  C         10.9390   -9.5630   18.5990 C.2   100  LYS100      0.2592
    143  O         11.5390  -10.3630   17.8960 O.2   100  LYS100     -0.2718
    144  CB         9.6400   -7.6700   17.7750 C.3   100  LYS100      0.0285
    145  CG        10.3340   -7.4820   16.4770 C.3   100  LYS100      0.0035
    146  CD        10.2040   -6.0150   16.0470 C.3   100  LYS100      0.0206
    147  CE        10.6380   -5.7940   14.6020 C.3   100  LYS100      0.1093
    148  NZ        12.1010   -5.9760   14.4680 N.3   100  LYS100     -0.1314
    149  N         11.4830   -9.0480   19.6980 N.am  101  HIS101     -0.1976
    150  CA        12.8580   -9.3720   20.0330 C.3   101  HIS101      0.1656
    151  C         13.0330  -10.6080   20.9180 C.2   101  HIS101      0.2291
    152  O         14.1620  -11.1320   21.0300 O.2   101  HIS101     -0.2864
    153  CB        13.5240   -8.1630   20.6970 C.3   101  HIS101      0.0771
    154  CG        13.2980   -6.8850   19.9660 C.ar  101  HIS101      0.0820
    155  ND1       13.5700   -6.7490   18.6190 N.ar  101  HIS101     -0.2267
    156  CD2       12.8260   -5.6870   20.3860 C.ar  101  HIS101      0.1154
    157  CE1       13.2810   -5.5100   18.2530 C.ar  101  HIS101      0.1986
    158  NE2       12.7960   -4.8580   19.2960 N.ar  101  HIS101     -0.2212
    159  N         13.1610  -10.9300   24.1220 N.3   103  VAL103     -0.1245
    160  CA        14.1330  -10.7200   25.2020 C.3   103  VAL103      0.1561
    161  C         13.6410  -11.2630   26.5380 C.2   103  VAL103      0.2260
    162  O         12.5070  -10.9650   26.9920 O.2   103  VAL103     -0.2867
    163  CB        14.4390   -9.2000   25.3190 C.3   103  VAL103      0.0252
    164  CG1       15.2820   -8.8370   26.5550 C.3   103  VAL103      0.0019
    165  CG2       15.0440   -8.7250   24.0310 C.3   103  VAL103      0.0019
    166  N         16.7810   -9.7290   31.5570 N.3   107  TYR107     -0.1227
    167  CA        17.6850   -8.6950   31.0200 C.3   107  TYR107      0.1736
    168  C         17.1830   -7.2620   31.2760 C.2   107  TYR107      0.2595
    169  O         17.9760   -6.3470   31.4310 O.2   107  TYR107     -0.2718
    170  CB        17.9580   -8.9740   29.5440 C.3   107  TYR107      0.0548
    171  CG        18.7680  -10.2340   29.3970 C.ar  107  TYR107     -0.0200
    172  CD1       20.0240  -10.3740   30.0230 C.ar  107  TYR107     -0.0009
    173  CD2       18.2860  -11.3070   28.6730 C.ar  107  TYR107     -0.0009
    174  CE1       20.7470  -11.5710   29.8990 C.ar  107  TYR107      0.0417
    175  CE2       18.9940  -12.4800   28.5720 C.ar  107  TYR107      0.0417
    176  CZ        20.2360  -12.6050   29.1500 C.ar  107  TYR107      0.1957
    177  OH        20.9340  -13.8090   29.0390 O.3   107  TYR107     -0.2866
    178  N         15.8550   -7.0740   31.3390 N.am  108  PHE108     -0.1976
    179  CA        15.2780   -5.8160   31.7830 C.3   108  PHE108      0.1639
    180  C         15.5870   -5.5430   33.2580 C.2   108  PHE108      0.2290
    181  O         15.8920   -4.4070   33.6190 O.2   108  PHE108     -0.2864
    182  CB        13.7550   -5.7480   31.5330 C.3   108  PHE108      0.0560
    183  CG        13.3960   -5.3650   30.1280 C.ar  108  PHE108     -0.0200
    184  CD1       13.2420   -6.3050   29.1470 C.ar  108  PHE108     -0.0042
    185  CD2       13.3110   -4.0360   29.7750 C.ar  108  PHE108     -0.0042
    186  CE1       12.9550   -5.9200   27.8600 C.ar  108  PHE108     -0.0003
    187  CE2       13.0370   -3.6620   28.4950 C.ar  108  PHE108     -0.0003
    188  CZ        12.8780   -4.5910   27.5400 C.ar  108  PHE108     -0.0000
    189  N         19.3590   -4.7080   33.2680 N.3   111  LEU111     -0.1231
    190  CA        19.6900   -3.4380   32.6540 C.3   111  LEU111      0.1693
    191  C         19.2120   -2.2690   33.5040 C.2   111  LEU111      0.2592
    192  O         19.9230   -1.2920   33.6620 O.2   111  LEU111     -0.2718
    193  CB        19.1580   -3.3460   31.2370 C.3   111  LEU111      0.0284
    194  CG        19.4000   -2.0200   30.5480 C.3   111  LEU111      0.0019
    195  CD1       20.8570   -1.6780   30.3950 C.3   111  LEU111      0.0001
    196  CD2       18.7420   -2.0050   29.1800 C.3   111  LEU111      0.0001
    197  N         18.0310   -2.4010   34.0780 N.am  112  SER112     -0.1952
    198  CA        17.4940   -1.3320   34.9370 C.3   112  SER112      0.1924
    199  C         18.4080   -1.1300   36.1440 C.2   112  SER112      0.2314
    200  O         18.6020   -0.0160   36.5810 O.2   112  SER112     -0.2863
    201  CB        16.0310   -1.5810   35.3120 C.3   112  SER112      0.2116
    202  OG        15.8190   -2.6960   36.1480 O.3   112  SER112     -0.2180
    203  N         21.4770    0.8540   34.9750 N.3   115  ILE115     -0.1245
    204  CA        21.1490    2.2420   34.8080 C.3   115  ILE115      0.1561
    205  C         21.2620    2.9320   36.1660 C.2   115  ILE115      0.2260
    206  O         21.8720    3.9710   36.3140 O.2   115  ILE115     -0.2867
    207  CB        19.7080    2.3930   34.2280 C.3   115  ILE115      0.0252
    208  CG1       19.6750    1.9570   32.7640 C.3   115  ILE115      0.0019
    209  CG2       19.2190    3.8400   34.3420 C.3   115  ILE115      0.0019
    210  CD1       18.2810    1.7950   32.1930 C.3   115  ILE115      0.0001
    211  N          9.7920    1.0480   35.9170 N.3   142  ILE142     -0.1245
    212  CA        10.1590    0.5860   34.5750 C.3   142  ILE142      0.1561
    213  C          9.9920   -0.9430   34.4700 C.2   142  ILE142      0.2260
    214  O          9.3030   -1.4570   33.5840 O.2   142  ILE142     -0.2867
    215  CB        11.5640    1.0300   34.1780 C.3   142  ILE142      0.0252
    216  CG1       11.6450    2.5430   34.0000 C.3   142  ILE142      0.0019
    217  CG2       12.0420    0.3340   32.8480 C.3   142  ILE142      0.0019
    218  CD1       13.0610    3.0040   34.0060 C.3   142  ILE142      0.0001
    219  N          7.1220   -3.1080   32.3080 N.3   146  VAL146     -0.1245
    220  CA         7.5810   -3.9960   31.2430 C.3   146  VAL146      0.1561
    221  C          7.1270   -5.4660   31.4790 C.2   146  VAL146      0.2260
    222  O          6.5870   -6.1200   30.5500 O.2   146  VAL146     -0.2867
    223  CB         9.0790   -3.9250   31.0310 C.3   146  VAL146      0.0252
    224  CG1        9.4680   -5.0020   30.0250 C.3   146  VAL146      0.0019
    225  CG2        9.4850   -2.5690   30.4880 C.3   146  VAL146      0.0019
@<TRIPOS>BOND
     1    66    67    1
     2    66    65    1
     3    67    68    1
     4   148   147    1
     5   147   146    1
     6    65    64    1
     7    51    52    1
     8    59    57   am
     9    55    52    1
    10    55    56    1
    11   146   145    1
    12    57    58    2
    13    57    56    1
    14    52    53    1
    15    64    61    1
    16   145   144    1
    17    88    87    1
    18    87    89    1
    19    87    86    2
    20    42    43    2
    21    42    41    1
    22    61    60    1
    23    61    62    1
    24    53    54    2
    25   144   141    1
    26   143   142    2
    27   141   142    1
    28   141   140    1
    29   157   155   ar
    30   157   158   ar
    31    85    86    1
    32    85    84    1
    33   142   149   am
    34    41    44    1
    35    41    40    1
    36   155   154   ar
    37    31    30    2
    38    84    83    1
    39    62    63    2
    40    62    69   am
    41   158   156   ar
    42    44    45    1
    43    69    70    1
    44    40    30   am
    45    30    29    1
    46   149   150    1
    47    46    45   ar
    48    46    48   ar
    49   154   156   ar
    50   154   153    1
    51   150   153    1
    52   150   151    1
    53    83    80    1
    54    45    47   ar
    55    70    73    1
    56    70    71    1
    57    29    28    1
    58    29    32    1
    59    48    50   ar
    60   129   126    1
    61   128   127    2
    62   151   152    2
    63    79    80    1
    64    73    74    1
    65    80    81    1
    66   126   127    1
    67   126   125    1
    68    32    33    1
    69    47    49   ar
    70   127   130   am
    71    71    72    2
    72    76    74   ar
    73    76    78   ar
    74    50    49   ar
    75    74    75   ar
    76    34    33   ar
    77    34    36   ar
    78    81    82    2
    79    81    90   am
    80    33    35   ar
    81   130   131    1
    82    78    77   ar
    83    75    77   ar
    84   131   132    1
    85   131   134    1
    86   133   132    2
    87    36    38   ar
    88    90    91    1
    89   138   139   ar
    90   138   136   ar
    91   139   137   ar
    92   136   135   ar
    93    35    37   ar
    94   137   135   ar
    95   165   163    1
    96   135   134    1
    97   159   160    1
    98    97    98    1
    99   121   120    2
   100   118   119    1
   101    21    22   ar
   102    21    19   ar
   103    22    20   ar
   104    26    25    2
   105   119   120    1
   106   119   122    1
   107    38    37   ar
   108    38    39    1
   109    91    92    1
   110    91    94    1
   111   101    98    1
   112    96    94    1
   113    98    99    1
   114    19    17   ar
   115   124   122    1
   116   160   163    1
   117   160   161    1
   118    20    18   ar
   119    25    24    1
   120   163   164    1
   121    92    93    2
   122    94    95    1
   123   122   123    1
   124    17    18   ar
   125    17    16    1
   126    16    13    1
   127   161   162    2
   128    99   100    2
   129    99   102   am
   130    24    23    1
   131    24    27    1
   132   102   103    1
   133   188   186   ar
   134   188   187   ar
   135   113   112    2
   136   186   184   ar
   137    13    14    1
   138    13    12    1
   139   112   111    1
   140   110   111    1
   141    15    14    2
   142    10     8   ar
   143    10    11   ar
   144   187   185   ar
   145   175   173   ar
   146   175   176   ar
   147   111   114    1
   148     8     6   ar
   149   173   171   ar
   150   103   104    1
   151   103   106    1
   152    12     3   am
   153   104   105    2
   154   177   176    1
   155   184   183   ar
   156   176   174   ar
   157   196   194    1
   158   106   107    1
   159    11     9   ar
   160   171   170    1
   161   171   172   ar
   162   107   108    1
   163   107   109    1
   164   170   167    1
   165   185   183   ar
   166   174   172   ar
   167     6     5    1
   168     6     7   ar
   169     3     4    2
   170     3     2    1
   171   224   223    1
   172   114   115    1
   173   183   182    1
   174   117   115    1
   175     5     2    1
   176   195   194    1
   177   225   223    1
   178   194   193    1
   179   222   221    2
   180   115   116    1
   181     9     7   ar
   182     1     2    1
   183   167   168    1
   184   167   166    1
   185   223   220    1
   186   193   190    1
   187   220   221    1
   188   220   219    1
   189   168   178   am
   190   168   169    2
   191   178   179    1
   192   182   179    1
   193   179   180    1
   194   210   208    1
   195   190   189    1
   196   190   191    1
   197   208   207    1
   198   217   215    1
   199   180   181    2
   200   191   192    2
   201   191   197   am
   202   214   213    2
   203   216   218    1
   204   216   215    1
   205   197   198    1
   206   215   212    1
   207   207   209    1
   208   207   204    1
   209   213   212    1
   210   212   211    1
   211   204   203    1
   212   204   205    1
   213   198   201    1
   214   198   199    1
   215   201   202    1
   216   199   200    2
   217   205   206    2
