@<TRIPOS>MOLECULE
tmp/2dc6A00.pdb
 163 159 0 0 0
SMALL
GASTEIGER

@<TRIPOS>ATOM
      1  N          7.2720   24.1800  -15.0180 N.3    23  GLN23      -0.1245
      2  CA         8.1090   22.9940  -15.1700 C.3    23  GLN23       0.1566
      3  C          7.3400   21.7920  -15.7080 C.2    23  GLN23       0.2260
      4  O          7.9330   20.7790  -16.0690 O.2    23  GLN23      -0.2867
      5  CB         8.7300   22.6230  -13.8260 C.3    23  GLN23       0.0367
      6  CG         7.7260   22.0750  -12.8340 C.3    23  GLN23       0.0905
      7  CD         8.3160   21.9140  -11.4520 C.2    23  GLN23       0.2608
      8  OE1        8.5080   22.8960  -10.7260 O.2    23  GLN23      -0.2717
      9  NE2        8.6220   20.6760  -11.0790 N.am   23  GLN23      -0.0878
     10  N          9.9320   16.6640  -12.3210 N.3    27  GLY27      -0.1225
     11  CA        10.5990   17.2020  -11.1460 C.3    27  GLY27       0.1811
     12  C         11.8520   17.9680  -11.5260 C.2    27  GLY27       0.2280
     13  O         12.9560   17.6500  -11.0750 O.2    27  GLY27      -0.2866
     14  N         12.4540   21.3150  -10.9330 N.3    29  CYS29      -0.1221
     15  CA        12.5720   22.5870  -10.2210 C.3    29  CYS29       0.1808
     16  C         14.0230   23.0570  -10.0970 C.2    29  CYS29       0.2601
     17  O         14.3080   24.2440  -10.2210 O.2    29  CYS29      -0.2717
     18  CB        11.9800   22.4460   -8.8030 C.3    29  CYS29       0.0970
     19  SG        12.8090   21.2420   -7.7300 S.3    29  CYS29      -0.0800
     20  N         14.9310   22.1210   -9.8390 N.am   30  TRP30      -0.1976
     21  CA        16.3390   22.4610   -9.6840 C.3    30  TRP30       0.1640
     22  C         16.8470   23.2050  -10.9150 C.2    30  TRP30       0.2290
     23  O         17.6160   24.1620  -10.7990 O.2    30  TRP30      -0.2864
     24  CB        17.1700   21.1960   -9.4670 C.3    30  TRP30       0.0576
     25  CG        17.0700   20.2090  -10.5860 C.ar   30  TRP30       0.0006
     26  CD1       16.1290   19.2350  -10.7400 C.ar   30  TRP30       0.0946
     27  CD2       17.9500   20.0990  -11.7140 C.ar   30  TRP30       0.0152
     28  NE1       16.3680   18.5190  -11.8900 N.ar   30  TRP30      -0.2442
     29  CE2       17.4790   19.0290  -12.5080 C.ar   30  TRP30       0.0810
     30  CE3       19.0890   20.8040  -12.1320 C.ar   30  TRP30       0.0012
     31  CZ2       18.1100   18.6430  -13.6980 C.ar   30  TRP30       0.0191
     32  CZ3       19.7160   20.4210  -13.3190 C.ar   30  TRP30       0.0001
     33  CH2       19.2220   19.3480  -14.0860 C.ar   30  TRP30       0.0015
     34  N         22.2330   15.6560  -11.0080 N.3    66  GLY66      -0.1210
     35  CA        21.2480   14.8290  -10.3470 C.3    66  GLY66       0.1956
     36  C         20.6000   13.8040  -11.2510 C.2    66  GLY66       0.2611
     37  O         21.2960   13.0480  -11.9250 O.2    66  GLY66      -0.2717
     38  N         19.2690   13.7860  -11.2800 N.am   67  ASP67      -0.1973
     39  CA        18.5480   12.8070  -12.0780 C.3    67  ASP67       0.1709
     40  C         17.3790   13.3870  -12.8800 C.2    67  ASP67       0.2293
     41  O         16.2500   12.9060  -12.7770 O.2    67  ASP67      -0.2864
     42  CB        18.0490   11.6870  -11.1570 C.3    67  ASP67       0.1436
     43  CG        17.5850   10.4580  -11.9200 C.2    67  ASP67       0.3671
     44  OD1       16.7880    9.6720  -11.3540 O.co2  67  ASP67      -0.2456
     45  OD2       18.0200   10.2620  -13.0770 O.co2  67  ASP67      -0.2456
     46  N         13.7170   13.5000  -12.0890 N.3    70  ASN70      -0.1225
     47  CA        13.6680   12.8280  -10.7950 C.3    70  ASN70       0.1785
     48  C         14.3130   13.6720   -9.7000 C.2    70  ASN70       0.2598
     49  O         14.4820   13.2150   -8.5630 O.2    70  ASN70      -0.2718
     50  CB        14.3680   11.4740  -10.8730 C.3    70  ASN70       0.1169
     51  CG        13.4210   10.3570  -11.2260 C.2    70  ASN70       0.2627
     52  OD1       12.7020   10.4300  -12.2200 O.2    70  ASN70      -0.2716
     53  ND2       13.4100    9.3110  -10.4070 N.am   70  ASN70      -0.0877
     54  N         14.6760   14.9020  -10.0460 N.am   71  GLY71      -0.1942
     55  CA        15.2940   15.7810   -9.0740 C.3    71  GLY71       0.2014
     56  C         16.7550   16.0410   -9.3660 C.2    71  GLY71       0.2639
     57  O         17.4330   15.2230   -9.9840 O.2    71  GLY71      -0.2714
     58  N         17.2430   17.1850   -8.9100 N.am   72  GLY72      -0.1939
     59  CA        18.6290   17.5400   -9.1450 C.3    72  GLY72       0.2014
     60  C         19.1900   18.4130   -8.0430 C.2    72  GLY72       0.2639
     61  O         18.5120   18.6810   -7.0520 O.2    72  GLY72      -0.2714
     62  N         20.4230   18.8710   -8.2240 N.am   73  PHE73      -0.1960
     63  CA        21.0850   19.6990   -7.2270 C.3    73  PHE73       0.1756
     64  C         21.3640   21.0920   -7.7550 C.2    73  PHE73       0.2461
     65  O         22.1840   21.2720   -8.6530 O.2    73  PHE73      -0.2730
     66  CB        22.3940   19.0420   -6.8100 C.3    73  PHE73       0.0574
     67  CG        22.2740   17.5700   -6.5670 C.ar   73  PHE73      -0.0200
     68  CD1       22.7720   16.6600   -7.4930 C.ar   73  PHE73      -0.0042
     69  CD2       21.6550   17.0920   -5.4150 C.ar   73  PHE73      -0.0042
     70  CE1       22.6600   15.2840   -7.2780 C.ar   73  PHE73      -0.0003
     71  CE2       21.5340   15.7210   -5.1850 C.ar   73  PHE73      -0.0003
     72  CZ        22.0390   14.8110   -6.1200 C.ar   73  PHE73      -0.0000
     73  N         20.6930   22.1040   -7.1870 N.am   74  PRO74      -0.2727
     74  CA        20.8790   23.4910   -7.6170 C.3    74  PRO74       0.1402
     75  C         22.3270   23.8890   -7.9190 C.2    74  PRO74       0.2269
     76  O         22.6190   24.3420   -9.0250 O.2    74  PRO74      -0.2865
     77  CB        20.2550   24.2830   -6.4720 C.3    74  PRO74       0.0296
     78  CG        19.0760   23.4190   -6.1210 C.3    74  PRO74       0.0237
     79  CD        19.7060   22.0230   -6.0940 C.3    74  PRO74       0.0939
     80  N         -2.0150   21.7440   -8.7110 N.3   109  HIS109     -0.1241
     81  CA        -2.8500   21.8440   -7.5170 C.3   109  HIS109      0.1621
     82  C         -3.8910   22.9610   -7.5900 C.2   109  HIS109      0.2264
     83  O         -4.1820   23.6190   -6.5880 O.2   109  HIS109     -0.2867
     84  CB        -1.9590   22.0460   -6.2910 C.3   109  HIS109      0.0745
     85  CG        -0.7930   21.1100   -6.2410 C.ar  109  HIS109      0.0817
     86  ND1       -0.9310   19.7600   -6.0010 N.ar  109  HIS109     -0.2268
     87  CD2        0.5280   21.3220   -6.4530 C.ar  109  HIS109      0.1154
     88  CE1        0.2550   19.1790   -6.0700 C.ar  109  HIS109      0.1986
     89  NE2        1.1570   20.1040   -6.3450 N.ar  109  HIS109     -0.2212
     90  N         16.1730   26.5870   -2.1050 N.3   171  ALA171     -0.1245
     91  CA        15.4310   25.3440   -1.9630 C.3   171  ALA171      0.1562
     92  C         14.8630   25.2270   -0.5570 C.2   171  ALA171      0.2260
     93  O         15.4740   25.6890    0.4090 O.2   171  ALA171     -0.2867
     94  CB        16.3430   24.1660   -2.2540 C.3   171  ALA171      0.0290
     95  N          8.8700   21.3360    1.0030 N.3   174  VAL174     -0.1245
     96  CA         7.4790   21.6300    0.7060 C.3   174  VAL174      0.1561
     97  C          6.6050   20.6270    1.4420 C.2   174  VAL174      0.2260
     98  O          6.8240   19.4200    1.3390 O.2   174  VAL174     -0.2867
     99  CB         7.1730   21.5330   -0.8140 C.3   174  VAL174      0.0252
    100  CG1        5.6710   21.3490   -1.0450 C.3   174  VAL174      0.0019
    101  CG2        7.6380   22.7960   -1.5170 C.3   174  VAL174      0.0019
    102  N          0.9290   23.6630   -0.9040 N.3   179  LEU179     -0.1245
    103  CA         0.3100   23.4500   -2.2070 C.3   179  LEU179      0.1561
    104  C         -0.8810   24.3560   -2.4680 C.2   179  LEU179      0.2260
    105  O         -1.1300   24.7400   -3.6100 O.2   179  LEU179     -0.2867
    106  CB        -0.1350   21.9970   -2.3510 C.3   179  LEU179      0.0270
    107  CG         0.9220   20.9380   -2.0400 C.3   179  LEU179      0.0019
    108  CD1        0.3040   19.5630   -2.2360 C.3   179  LEU179      0.0001
    109  CD2        2.1440   21.1240   -2.9320 C.3   179  LEU179      0.0001
    110  N          6.5570   16.7810    1.2600 N.3   194  MET194     -0.1230
    111  CA         6.4410   16.4440   -0.1570 C.3   194  MET194      0.1702
    112  C          7.8340   16.3260   -0.7620 C.2   194  MET194      0.2593
    113  O          8.0030   15.7720   -1.8370 O.2   194  MET194     -0.2718
    114  CB         5.6670   17.5300   -0.9090 C.3   194  MET194      0.0401
    115  CG         4.2760   17.8190   -0.3710 C.3   194  MET194      0.0596
    116  SD         3.0650   16.5910   -0.8530 S.3   194  MET194     -0.1393
    117  CE         3.4990   15.2540    0.2360 C.3   194  MET194      0.0692
    118  N          8.8280   16.8640   -0.0650 N.am  195  GLY195     -0.1942
    119  CA        10.1900   16.8090   -0.5610 C.3   195  GLY195      0.2014
    120  C         10.7820   18.1890   -0.7680 C.2   195  GLY195      0.2639
    121  O         10.1220   19.1970   -0.5320 O.2   195  GLY195     -0.2714
    122  N         12.0340   18.2340   -1.2080 N.am  196  GLY196     -0.1939
    123  CA        12.6910   19.5050   -1.4450 C.3   196  GLY196      0.2014
    124  C         12.2210   20.1670   -2.7230 C.2   196  GLY196      0.2639
    125  O         11.9240   19.4990   -3.7150 O.2   196  GLY196     -0.2714
    126  N         12.1520   21.4920   -2.7050 N.am  197  HIS197     -0.1959
    127  CA        11.7170   22.2320   -3.8790 C.3   197  HIS197      0.1787
    128  C         12.6630   23.4020   -4.1200 C.2   197  HIS197      0.2620
    129  O         12.8590   24.2520   -3.2440 O.2   197  HIS197     -0.2715
    130  CB        10.2780   22.7300   -3.6860 C.3   197  HIS197      0.0785
    131  CG         9.6570   23.2990   -4.9270 C.ar  197  HIS197      0.0821
    132  ND1        9.7550   22.6850   -6.1570 N.ar  197  HIS197     -0.2267
    133  CD2        8.9040   24.4090   -5.1190 C.ar  197  HIS197      0.1154
    134  CE1        9.0910   23.3920   -7.0540 C.ar  197  HIS197      0.1986
    135  NE2        8.5650   24.4420   -6.4510 N.ar  197  HIS197     -0.2212
    136  N         13.2650   23.4140   -5.3060 N.am  198  ALA198     -0.1977
    137  CA        14.1910   24.4620   -5.7070 C.3   198  ALA198      0.1597
    138  C         13.3560   25.5720   -6.3330 C.2   198  ALA198      0.2287
    139  O         12.4100   25.3050   -7.0840 O.2   198  ALA198     -0.2864
    140  CB        15.1940   23.9190   -6.7100 C.3   198  ALA198      0.0319
    141  N          5.2550   26.9000  -11.2250 N.3   219  TRP219     -0.1241
    142  CA         4.0210   26.1460  -11.4180 C.3   219  TRP219      0.1605
    143  C          2.9890   26.9540  -12.1840 C.2   219  TRP219      0.2264
    144  O          1.7820   26.8380  -11.9440 O.2   219  TRP219     -0.2867
    145  CB         3.4420   25.7180  -10.0670 C.3   219  TRP219      0.0550
    146  CG         4.3140   24.7480   -9.3240 C.ar  219  TRP219      0.0003
    147  CD1        5.4340   24.1190   -9.7950 C.ar  219  TRP219      0.0946
    148  CD2        4.1340   24.2890   -7.9780 C.ar  219  TRP219      0.0152
    149  NE1        5.9610   23.3010   -8.8270 N.ar  219  TRP219     -0.2442
    150  CE2        5.1830   23.3860   -7.7010 C.ar  219  TRP219      0.0810
    151  CE3        3.1880   24.5540   -6.9790 C.ar  219  TRP219      0.0012
    152  CZ2        5.3140   22.7470   -6.4650 C.ar  219  TRP219      0.0191
    153  CZ3        3.3190   23.9180   -5.7480 C.ar  219  TRP219      0.0001
    154  CH2        4.3740   23.0260   -5.5050 C.ar  219  TRP219      0.0015
    155  N         20.1430   26.6620    1.4720 N.3   243  GLU243     -0.1245
    156  CA        20.7630   26.1550    0.2500 C.3   243  GLU243      0.1567
    157  C         20.7600   27.1660   -0.8930 C.2   243  GLU243      0.2260
    158  O         20.3370   26.8460   -2.0030 O.2   243  GLU243     -0.2867
    159  CB        20.0230   24.8900   -0.1840 C.3   243  GLU243      0.0388
    160  CG        20.7630   24.0470   -1.1970 C.3   243  GLU243      0.1160
    161  CD        19.8290   23.3660   -2.1810 C.2   243  GLU243      0.3649
    162  OE1       19.5640   23.9620   -3.2500 O.co2 243  GLU243     -0.2457
    163  OE2       19.3570   22.2450   -1.8770 O.co2 243  GLU243     -0.2457
@<TRIPOS>BOND
     1     4     3    2
     2     3     2    1
     3     2     1    1
     4     2     5    1
     5    33    31   ar
     6    33    32   ar
     7     5     6    1
     8    31    29   ar
     9    32    30   ar
    10    45    43   ar
    11    40    41    2
    12    40    39    1
    13     6     7    1
    14    29    28   ar
    15    29    27   ar
    16    10    11    1
    17    52    51    2
    18   143   144    2
    19   143   142    1
    20    30    27   ar
    21    46    47    1
    22    39    38    1
    23    39    42    1
    24    37    36    2
    25    43    44   ar
    26    43    42    1
    27    28    26   ar
    28    27    25   ar
    29    12    11    1
    30    12    13    2
    31     7     9   am
    32     7     8    2
    33   142   141    1
    34   142   145    1
    35    38    36   am
    36    36    35    1
    37    51    50    1
    38    51    53   am
    39    34    35    1
    40    14    15    1
    41    22    23    2
    42    22    21    1
    43    50    47    1
    44    47    48    1
    45    26    25   ar
    46    25    24    1
    47    17    16    2
    48    15    16    1
    49    15    18    1
    50    16    20   am
    51   145   146    1
    52    54    48   am
    53    54    55    1
    54    57    56    2
    55    20    21    1
    56   147   146   ar
    57   147   149   ar
    58    48    49    2
    59    21    24    1
    60    56    55    1
    61    56    58   am
    62   146   148   ar
    63    59    58    1
    64    59    60    1
    65    76    75    2
    66   149   150   ar
    67    18    19    1
    68    80    81    1
    69    65    64    2
    70    62    60   am
    71    62    63    1
    72    60    61    2
    73   148   150   ar
    74   148   151   ar
    75    75    74    1
    76    64    63    1
    77    64    73   am
    78   150   152   ar
    79    74    73    1
    80    74    77    1
    81    82    81    1
    82    82    83    2
    83    81    84    1
    84    68    70   ar
    85    68    67   ar
    86    70    72   ar
    87    63    66    1
    88    73    79    1
    89   139   138    2
    90   134   135   ar
    91   134   132   ar
    92   151   153   ar
    93    66    67    1
    94   140   137    1
    95    67    69   ar
    96    77    78    1
    97   152   154   ar
    98    87    89   ar
    99    87    85   ar
   100   135   133   ar
   101    89    88   ar
   102   138   137    1
   103    84    85    1
   104    85    86   ar
   105   132   131   ar
   106    78    79    1
   107    72    71   ar
   108    88    86   ar
   109   153   154   ar
   110   137   136    1
   111    69    71   ar
   112   136   128   am
   113   133   131   ar
   114   131   130    1
   115   128   127    1
   116   128   129    2
   117   127   130    1
   118   127   126    1
   119   125   124    2
   120   105   104    2
   121   162   161   ar
   122   109   107    1
   123   124   126   am
   124   124   123    1
   125   104   103    1
   126   106   103    1
   127   106   107    1
   128    94    91    1
   129   108   107    1
   130   103   102    1
   131   161   163   ar
   132   161   160    1
   133    90    91    1
   134   158   157    2
   135    91    92    1
   136   113   112    2
   137   101    99    1
   138   123   122    1
   139   122   120   am
   140   160   159    1
   141   100    99    1
   142   114   115    1
   143   114   111    1
   144   157   156    1
   145   116   115    1
   146   116   117    1
   147    99    96    1
   148   120   119    1
   149   120   121    2
   150   112   111    1
   151   112   118   am
   152   119   118    1
   153    92    93    2
   154   159   156    1
   155   111   110    1
   156   156   155    1
   157    96    95    1
   158    96    97    1
   159    98    97    2
