@<TRIPOS>MOLECULE
tmp/2dc7A00.pdb
 189 186 0 0 0
SMALL
GASTEIGER

@<TRIPOS>ATOM
      1  N          7.1580   24.0450  -15.0700 N.3    23  GLN23      -0.1231
      2  CA         8.0140   22.8740  -15.2030 C.3    23  GLN23       0.1698
      3  C          7.2540   21.6640  -15.7480 C.2    23  GLN23       0.2593
      4  O          7.8570   20.6580  -16.1120 O.2    23  GLN23      -0.2718
      5  CB         8.6400   22.5340  -13.8470 C.3    23  GLN23       0.0381
      6  CG         7.6440   22.0470  -12.7980 C.3    23  GLN23       0.0905
      7  CD         8.2780   21.8910  -11.4290 C.2    23  GLN23       0.2608
      8  OE1        8.4880   22.8730  -10.7100 O.2    23  GLN23      -0.2717
      9  NE2        8.6030   20.6560  -11.0660 N.am   23  GLN23      -0.0878
     10  N          5.9310   21.7710  -15.8100 N.am   24  GLY24      -0.1942
     11  CA         5.1240   20.6750  -16.3190 C.3    24  GLY24       0.2014
     12  C          5.1240   19.4680  -15.4000 C.2    24  GLY24       0.2640
     13  O          5.4810   19.5730  -14.2250 O.2    24  GLY24      -0.2714
     14  N          4.7300   18.3170  -15.9380 N.am   25  SER25      -0.1935
     15  CA         4.6830   17.0790  -15.1640 C.3    25  SER25       0.2055
     16  C          6.0670   16.4430  -15.1510 C.2    25  SER25       0.2643
     17  O          6.2970   15.3900  -15.7500 O.2    25  SER25      -0.2714
     18  CB         3.6600   16.1210  -15.7790 C.3    25  SER25       0.2130
     19  OG         2.3570   16.6840  -15.7390 O.3    25  SER25      -0.2179
     20  N          6.9840   17.0960  -14.4500 N.am   26  CYS26      -0.1953
     21  CA         8.3670   16.6460  -14.3710 C.3    26  CYS26       0.1843
     22  C          9.0080   17.2920  -13.1440 C.2    26  CYS26       0.2626
     23  O          8.7980   18.4760  -12.8900 O.2    26  CYS26      -0.2714
     24  CB         9.0790   17.0640  -15.6670 C.3    26  CYS26       0.0997
     25  SG        10.8980   17.0950  -15.6780 S.3    26  CYS26      -0.0797
     26  N          9.7660   16.5110  -12.3750 N.am   27  GLY27      -0.1954
     27  CA        10.4070   17.0450  -11.1820 C.3    27  GLY27       0.1869
     28  C         11.6730   17.8100  -11.5180 C.2    27  GLY27       0.2309
     29  O         12.7520   17.5050  -11.0150 O.2    27  GLY27      -0.2863
     30  N         12.2610   21.1820  -10.9580 N.3    29  CYS29      -0.1221
     31  CA        12.3810   22.4790  -10.2980 C.3    29  CYS29       0.1808
     32  C         13.8360   22.8840  -10.0890 C.2    29  CYS29       0.2601
     33  O         14.1610   24.0690  -10.1430 O.2    29  CYS29      -0.2717
     34  CB        11.6810   22.4310   -8.9250 C.3    29  CYS29       0.0970
     35  SG        12.4740   21.3130   -7.7360 S.3    29  CYS29      -0.0800
     36  N         14.7100   21.9070   -9.8490 N.am   30  TRP30      -0.1976
     37  CA        16.1290   22.2100   -9.6480 C.3    30  TRP30       0.1640
     38  C         16.6850   22.9570  -10.8560 C.2    30  TRP30       0.2290
     39  O         17.4570   23.9090  -10.7180 O.2    30  TRP30      -0.2864
     40  CB        16.9470   20.9290   -9.4280 C.3    30  TRP30       0.0576
     41  CG        16.8970   19.9530  -10.5750 C.ar   30  TRP30       0.0006
     42  CD1       15.9690   18.9710  -10.7780 C.ar   30  TRP30       0.0946
     43  CD2       17.8030   19.8840  -11.6830 C.ar   30  TRP30       0.0152
     44  NE1       16.2400   18.2930  -11.9440 N.ar   30  TRP30      -0.2442
     45  CE2       17.3620   18.8340  -12.5200 C.ar   30  TRP30       0.0810
     46  CE3       18.9450   20.6110  -12.0530 C.ar   30  TRP30       0.0012
     47  CZ2       18.0240   18.4910  -13.7080 C.ar   30  TRP30       0.0191
     48  CZ3       19.6020   20.2700  -13.2370 C.ar   30  TRP30       0.0001
     49  CH2       19.1370   19.2190  -14.0480 C.ar   30  TRP30       0.0015
     50  N         14.0470   14.5620  -14.4460 N.3    69  CYS69      -0.1221
     51  CA        12.6870   14.7430  -13.9360 C.3    69  CYS69       0.1808
     52  C         12.4640   14.0550  -12.5940 C.2    69  CYS69       0.2601
     53  O         11.3840   14.1570  -12.0090 O.2    69  CYS69      -0.2717
     54  CB        11.6470   14.2400  -14.9480 C.3    69  CYS69       0.0970
     55  SG        11.4540   15.2890  -16.4290 S.3    69  CYS69      -0.0800
     56  N         13.4870   13.3560  -12.1090 N.am   70  ASN70      -0.1960
     57  CA        13.4100   12.6700  -10.8200 C.3    70  ASN70       0.1819
     58  C         14.0000   13.5320   -9.7050 C.2    70  ASN70       0.2622
     59  O         14.1060   13.0930   -8.5570 O.2    70  ASN70      -0.2715
     60  CB        14.1670   11.3440  -10.8770 C.3    70  ASN70       0.1195
     61  CG        13.2690   10.1770  -11.2000 C.2    70  ASN70       0.2630
     62  OD1       12.4540   10.2430  -12.1170 O.2    70  ASN70      -0.2716
     63  ND2       13.4140    9.0910  -10.4440 N.am   70  ASN70      -0.0877
     64  N         14.3900   14.7560  -10.0460 N.am   71  GLY71      -0.1940
     65  CA        14.9660   15.6420   -9.0500 C.3    71  GLY71       0.2014
     66  C         16.4490   15.8530   -9.2850 C.2    71  GLY71       0.2639
     67  O         17.0910   15.0670   -9.9810 O.2    71  GLY71      -0.2714
     68  N         17.0000   16.9100   -8.7010 N.am   72  GLY72      -0.1954
     69  CA        18.4110   17.1890   -8.8930 C.3    72  GLY72       0.1869
     70  C         19.0370   18.0890   -7.8490 C.2    72  GLY72       0.2309
     71  O         18.4290   18.3910   -6.8210 O.2    72  GLY72      -0.2863
     72  N         20.6190   21.7980   -7.1560 N.3    74  PRO74      -0.2116
     73  CA        20.7680   23.1820   -7.6150 C.3    74  PRO74       0.1372
     74  C         22.2070   23.6180   -7.8950 C.2    74  PRO74       0.2244
     75  O         22.4920   24.1290   -8.9790 O.2    74  PRO74      -0.2868
     76  CB        20.1140   23.9790   -6.4930 C.3    74  PRO74       0.0268
     77  CG        18.9690   23.0830   -6.1140 C.3    74  PRO74       0.0207
     78  CD        19.6380   21.7160   -6.0580 C.3    74  PRO74       0.0892
     79  N         -1.1750   22.8750  -11.6310 N.3   108  HIS108     -0.1226
     80  CA        -0.5010   22.4460  -10.4120 C.3   108  HIS108      0.1752
     81  C         -1.3710   22.7350   -9.1880 C.2   108  HIS108      0.2596
     82  O         -1.4200   23.8660   -8.7040 O.2   108  HIS108     -0.2718
     83  CB         0.8420   23.1760  -10.2650 C.3   108  HIS108      0.0759
     84  CG         1.8080   22.9120  -11.3810 C.ar  108  HIS108      0.0818
     85  ND1        2.8390   22.0020  -11.2770 N.ar  108  HIS108     -0.2268
     86  CD2        1.9020   23.4440  -12.6220 C.ar  108  HIS108      0.1154
     87  CE1        3.5280   21.9860  -12.4040 C.ar  108  HIS108      0.1986
     88  NE2        2.9800   22.8530  -13.2370 N.ar  108  HIS108     -0.2212
     89  N         -2.0660   21.7090   -8.7020 N.am  109  HIS109     -0.1975
     90  CA        -2.9240   21.8280   -7.5220 C.3   109  HIS109      0.1656
     91  C         -3.9670   22.9370   -7.5890 C.2   109  HIS109      0.2291
     92  O         -4.3110   23.5430   -6.5700 O.2   109  HIS109     -0.2864
     93  CB        -2.0670   22.0130   -6.2710 C.3   109  HIS109      0.0771
     94  CG        -0.9620   21.0150   -6.1570 C.ar  109  HIS109      0.0820
     95  ND1       -0.9700   19.7200   -5.7620 N.ar  109  HIS109     -0.2267
     96  CD2        0.3310   21.2910   -6.5450 C.ar  109  HIS109      0.1154
     97  CE1        0.3060   19.2400   -5.9250 C.ar  109  HIS109      0.1986
     98  NE2        1.0710   20.2070   -6.3970 N.ar  109  HIS109     -0.2212
     99  N         -1.6480   18.2980  -13.8060 N.3   117  CYS117     -0.1221
    100  CA        -0.2970   17.7600  -13.8020 C.3   117  CYS117      0.1808
    101  C         -0.3080   16.3360  -13.2690 C.2   117  CYS117      0.2602
    102  O         -1.1370   15.9850  -12.4280 O.2   117  CYS117     -0.2717
    103  CB         0.6190   18.6050  -12.9190 C.3   117  CYS117      0.0970
    104  SG         0.8450   20.3390  -13.4250 S.3   117  CYS117     -0.0800
    105  N          0.6140   15.5200  -13.7670 N.am  118  THR118     -0.1939
    106  CA         0.7430   14.1360  -13.3300 C.3   118  THR118      0.2028
    107  C          2.1580   13.9660  -12.7850 C.2   118  THR118      0.2642
    108  O          3.0630   14.7160  -13.1470 O.2   118  THR118     -0.2714
    109  CB         0.5350   13.1510  -14.4930 C.3   118  THR118      0.1808
    110  OG1        1.5590   13.3450  -15.4760 O.3   118  THR118     -0.2208
    111  CG2       -0.8300   13.3680  -15.1370 C.3   118  THR118      0.0379
    112  N          2.3490   12.9860  -11.9140 N.am  119  GLY119     -0.1954
    113  CA         3.6670   12.7710  -11.3480 C.3   119  GLY119      0.1869
    114  C          4.6300   12.1680  -12.3500 C.2   119  GLY119      0.2309
    115  O          5.8050   12.5360  -12.4000 O.2   119  GLY119     -0.2863
    116  N         15.9950   26.4660   -2.0900 N.3   171  ALA171     -0.1245
    117  CA        15.1520   25.2870   -1.9730 C.3   171  ALA171      0.1562
    118  C         14.6080   25.1810   -0.5600 C.2   171  ALA171      0.2260
    119  O         15.2420   25.6330    0.3940 O.2   171  ALA171     -0.2867
    120  CB        15.9450   24.0290   -2.3280 C.3   171  ALA171      0.0290
    121  N          8.7270   21.1550    1.1050 N.3   174  VAL174     -0.1245
    122  CA         7.3230   21.4060    0.8330 C.3   174  VAL174      0.1561
    123  C          6.4320   20.4550    1.6130 C.2   174  VAL174      0.2260
    124  O          6.6100   19.2390    1.5610 O.2   174  VAL174     -0.2867
    125  CB         6.9940   21.2470   -0.6690 C.3   174  VAL174      0.0252
    126  CG1        5.4860   21.3550   -0.8930 C.3   174  VAL174      0.0019
    127  CG2        7.7130   22.3140   -1.4680 C.3   174  VAL174      0.0019
    128  N          0.8060   23.6690   -0.8550 N.3   179  LEU179     -0.1245
    129  CA         0.1560   23.4350   -2.1380 C.3   179  LEU179      0.1561
    130  C         -1.0260   24.3500   -2.4230 C.2   179  LEU179      0.2260
    131  O         -1.2800   24.6950   -3.5760 O.2   179  LEU179     -0.2867
    132  CB        -0.3130   21.9800   -2.2300 C.3   179  LEU179      0.0270
    133  CG         0.7350   20.9080   -1.9330 C.3   179  LEU179      0.0019
    134  CD1        0.1110   19.5240   -2.1250 C.3   179  LEU179      0.0001
    135  CD2        1.9440   21.0940   -2.8480 C.3   179  LEU179      0.0001
    136  N          6.2090   16.6750    1.3760 N.3   194  MET194     -0.1230
    137  CA         6.1290   16.2960   -0.0330 C.3   194  MET194      0.1702
    138  C          7.5240   16.0870   -0.6200 C.2   194  MET194      0.2593
    139  O          7.7040   15.3050   -1.5500 O.2   194  MET194     -0.2718
    140  CB         5.4180   17.3940   -0.8320 C.3   194  MET194      0.0401
    141  CG         4.0910   17.8620   -0.2490 C.3   194  MET194      0.0596
    142  SD         2.6770   16.8840   -0.7670 S.3   194  MET194     -0.1393
    143  CE         2.7150   15.5760    0.4240 C.3   194  MET194      0.0692
    144  N          8.5030   16.7990   -0.0750 N.am  195  GLY195     -0.1942
    145  CA         9.8670   16.6890   -0.5590 C.3   195  GLY195      0.2014
    146  C         10.4710   18.0640   -0.7720 C.2   195  GLY195      0.2639
    147  O          9.8100   19.0750   -0.5400 O.2   195  GLY195     -0.2714
    148  N         11.7270   18.1050   -1.2100 N.am  196  GLY196     -0.1939
    149  CA        12.3910   19.3740   -1.4470 C.3   196  GLY196      0.2014
    150  C         11.9100   20.0320   -2.7280 C.2   196  GLY196      0.2639
    151  O         11.5470   19.3530   -3.6860 O.2   196  GLY196     -0.2714
    152  N         11.9020   21.3590   -2.7520 N.am  197  HIS197     -0.1959
    153  CA        11.4540   22.0750   -3.9350 C.3   197  HIS197      0.1787
    154  C         12.3360   23.2880   -4.1940 C.2   197  HIS197      0.2620
    155  O         12.4290   24.1860   -3.3610 O.2   197  HIS197     -0.2715
    156  CB         9.9970   22.5080   -3.7590 C.3   197  HIS197      0.0785
    157  CG         9.3940   23.1120   -4.9870 C.ar  197  HIS197      0.0821
    158  ND1        9.3870   22.4670   -6.2040 N.ar  197  HIS197     -0.2267
    159  CD2        8.7780   24.3010   -5.1870 C.ar  197  HIS197      0.1154
    160  CE1        8.7920   23.2320   -7.1020 C.ar  197  HIS197      0.1986
    161  NE2        8.4130   24.3510   -6.5100 N.ar  197  HIS197     -0.2212
    162  N         12.9820   23.3050   -5.3560 N.am  198  ALA198     -0.1977
    163  CA        13.8660   24.4010   -5.7290 C.3   198  ALA198      0.1597
    164  C         13.0570   25.5350   -6.3460 C.2   198  ALA198      0.2287
    165  O         12.1430   25.2960   -7.1360 O.2   198  ALA198     -0.2864
    166  CB        14.9220   23.9010   -6.7170 C.3   198  ALA198      0.0319
    167  N          5.1690   26.7570  -11.2870 N.3   219  TRP219     -0.1241
    168  CA         3.9140   26.0400  -11.4730 C.3   219  TRP219      0.1605
    169  C          2.8900   26.8750  -12.2360 C.2   219  TRP219      0.2264
    170  O          1.6860   26.7590  -12.0050 O.2   219  TRP219     -0.2867
    171  CB         3.3300   25.6330  -10.1140 C.3   219  TRP219      0.0550
    172  CG         4.1630   24.6300   -9.3590 C.ar  219  TRP219      0.0003
    173  CD1        5.2260   23.9130   -9.8370 C.ar  219  TRP219      0.0946
    174  CD2        3.9740   24.2070   -8.0020 C.ar  219  TRP219      0.0152
    175  NE1        5.7080   23.0710   -8.8620 N.ar  219  TRP219     -0.2442
    176  CE2        4.9570   23.2310   -7.7260 C.ar  219  TRP219      0.0810
    177  CE3        3.0650   24.5570   -6.9920 C.ar  219  TRP219      0.0012
    178  CZ2        5.0590   22.6010   -6.4800 C.ar  219  TRP219      0.0191
    179  CZ3        3.1660   23.9310   -5.7540 C.ar  219  TRP219      0.0001
    180  CH2        4.1570   22.9620   -5.5100 C.ar  219  TRP219      0.0015
    181  N         19.9200   26.4140    1.3610 N.3   243  GLU243     -0.1245
    182  CA        20.4740   25.8800    0.1200 C.3   243  GLU243      0.1567
    183  C         20.4970   26.9270   -0.9950 C.2   243  GLU243      0.2260
    184  O         20.0750   26.6640   -2.1210 O.2   243  GLU243     -0.2867
    185  CB        19.6320   24.6560   -0.2830 C.3   243  GLU243      0.0388
    186  CG        20.0280   23.9210   -1.5550 C.3   243  GLU243      0.1160
    187  CD        19.2380   22.6290   -1.7270 C.2   243  GLU243      0.3649
    188  OE1       19.1510   22.1150   -2.8640 O.co2 243  GLU243     -0.2457
    189  OE2       18.7070   22.1230   -0.7110 O.co2 243  GLU243     -0.2457
@<TRIPOS>BOND
     1    55    25    1
     2    55    54    1
     3    11    10    1
     4    11    12    1
     5     4     3    2
     6    14    12   am
     7    14    15    1
     8    10     3   am
     9    18    19    1
    10    18    15    1
    11    17    16    2
    12     3     2    1
    13    25    24    1
    14    24    21    1
    15   110   109    1
    16    12    13    2
    17     2     1    1
    18     2     5    1
    19    15    16    1
    20    16    20   am
    21   111   109    1
    22    54    51    1
    23   109   106    1
    24    20    21    1
    25    50    51    1
    26    21    22    1
    27    49    47   ar
    28    49    48   ar
    29    51    52    1
    30     5     6    1
    31    99   100    1
    32   100   101    1
    33   100   103    1
    34   105   106    1
    35   105   101   am
    36    47    45   ar
    37   104   103    1
    38   106   107    1
    39   101   102    2
    40    48    46   ar
    41    88    86   ar
    42    88    87   ar
    43   108   107    2
    44    22    23    2
    45    22    26   am
    46     6     7    1
    47   107   112   am
    48    86    84   ar
    49    52    56   am
    50    52    53    2
    51    45    44   ar
    52    45    43   ar
    53    87    85   ar
    54   115   114    2
    55    26    27    1
    56   114   113    1
    57   169   170    2
    58   169   168    1
    59    62    61    2
    60    56    57    1
    61    46    43   ar
    62    44    42   ar
    63   112   113    1
    64    43    41   ar
    65    79    80    1
    66    28    27    1
    67    28    29    2
    68   168   167    1
    69   168   171    1
    70     7     9   am
    71     7     8    2
    72    84    85   ar
    73    84    83    1
    74    61    60    1
    75    61    63   am
    76    30    31    1
    77    60    57    1
    78    38    39    2
    79    38    37    1
    80    57    58    1
    81    42    41   ar
    82    41    40    1
    83    80    83    1
    84    80    81    1
    85    31    32    1
    86    31    34    1
    87    33    32    2
    88   171   172    1
    89    32    36   am
    90    64    58   am
    91    64    65    1
    92    67    66    2
    93    36    37    1
    94   173   172   ar
    95   173   175   ar
    96    58    59    2
    97    37    40    1
    98   172   174   ar
    99    66    65    1
   100    66    68   am
   101    81    82    2
   102    81    89   am
   103    75    74    2
   104    34    35    1
   105    69    68    1
   106    69    70    1
   107   175   176   ar
   108    89    90    1
   109   174   176   ar
   110   174   177   ar
   111    74    73    1
   112    70    71    2
   113   176   178   ar
   114    73    72    1
   115    73    76    1
   116    91    90    1
   117    91    92    2
   118    90    93    1
   119    72    78    1
   120   165   164    2
   121   160   161   ar
   122   160   158   ar
   123   177   179   ar
   124   166   163    1
   125    96    98   ar
   126    96    94   ar
   127   161   159   ar
   128    76    77    1
   129   178   180   ar
   130    98    97   ar
   131   164   163    1
   132    93    94    1
   133   158   157   ar
   134    94    95   ar
   135    77    78    1
   136    97    95   ar
   137   179   180   ar
   138   163   162    1
   139   162   154   am
   140   159   157   ar
   141   157   156    1
   142   154   153    1
   143   154   155    2
   144   153   156    1
   145   153   152    1
   146   151   150    2
   147   131   130    2
   148   188   187   ar
   149   135   133    1
   150   152   150   am
   151   150   149    1
   152   130   129    1
   153   120   117    1
   154   132   129    1
   155   132   133    1
   156   129   128    1
   157   134   133    1
   158   184   183    2
   159   116   117    1
   160   117   118    1
   161   187   186    1
   162   187   189   ar
   163   186   185    1
   164   139   138    2
   165   127   125    1
   166   149   148    1
   167   148   146   am
   168   183   182    1
   169   126   125    1
   170   140   141    1
   171   140   137    1
   172   146   145    1
   173   146   147    2
   174   142   141    1
   175   142   143    1
   176   125   122    1
   177   138   144   am
   178   138   137    1
   179   118   119    2
   180   145   144    1
   181   185   182    1
   182   137   136    1
   183   182   181    1
   184   122   121    1
   185   122   123    1
   186   124   123    2
