@<TRIPOS>MOLECULE
tmp/2dc8A00.pdb
 156 152 0 0 0
SMALL
GASTEIGER

@<TRIPOS>ATOM
      1  N          7.1210   24.0560  -15.1480 N.3    23  GLN23      -0.1245
      2  CA         7.9810   22.8840  -15.2670 C.3    23  GLN23       0.1566
      3  C          7.2340   21.6550  -15.7830 C.2    23  GLN23       0.2260
      4  O          7.8490   20.6410  -16.1060 O.2    23  GLN23      -0.2867
      5  CB         8.6160   22.5670  -13.9110 C.3    23  GLN23       0.0367
      6  CG         7.6300   22.0460  -12.8720 C.3    23  GLN23       0.0905
      7  CD         8.2700   21.8710  -11.5150 C.2    23  GLN23       0.2608
      8  OE1        8.4680   22.8390  -10.7810 O.2    23  GLN23      -0.2717
      9  NE2        8.6150   20.6320  -11.1770 N.am   23  GLN23      -0.0878
     10  N          7.0110   17.0510  -14.4360 N.3    26  CYS26      -0.1221
     11  CA         8.3990   16.6140  -14.3720 C.3    26  CYS26       0.1808
     12  C          9.0280   17.2620  -13.1410 C.2    26  CYS26       0.2601
     13  O          8.8120   18.4460  -12.8890 O.2    26  CYS26      -0.2717
     14  CB         9.1050   17.0660  -15.6610 C.3    26  CYS26       0.0970
     15  SG        10.9270   17.0700  -15.6750 S.3    26  CYS26      -0.0800
     16  N          9.7860   16.4860  -12.3680 N.am   27  GLY27      -0.1957
     17  CA        10.4140   17.0240  -11.1710 C.3    27  GLY27       0.1869
     18  C         11.6770   17.7930  -11.5040 C.2    27  GLY27       0.2309
     19  O         12.7560   17.4880  -11.0000 O.2    27  GLY27      -0.2863
     20  N         12.2240   21.1510  -10.9440 N.3    29  CYS29      -0.1221
     21  CA        12.3280   22.4420  -10.2730 C.3    29  CYS29       0.1808
     22  C         13.7850   22.8630  -10.0830 C.2    29  CYS29       0.2601
     23  O         14.0990   24.0510  -10.1520 O.2    29  CYS29      -0.2717
     24  CB        11.6530   22.3700   -8.8910 C.3    29  CYS29       0.0970
     25  SG        12.3750   21.1000   -7.8150 S.3    29  CYS29      -0.0800
     26  N         14.6710   21.8960   -9.8520 N.am   30  TRP30      -0.1976
     27  CA        16.0900   22.2110   -9.6670 C.3    30  TRP30       0.1640
     28  C         16.6390   22.9550  -10.8820 C.2    30  TRP30       0.2290
     29  O         17.4260   23.8960  -10.7490 O.2    30  TRP30      -0.2864
     30  CB        16.9150   20.9340   -9.4300 C.3    30  TRP30       0.0576
     31  CG        16.8990   19.9460  -10.5750 C.ar   30  TRP30       0.0006
     32  CD1       16.0000   18.9370  -10.7810 C.ar   30  TRP30       0.0946
     33  CD2       17.8130   19.9010  -11.6760 C.ar   30  TRP30       0.0152
     34  NE1       16.2990   18.2640  -11.9490 N.ar   30  TRP30      -0.2442
     35  CE2       17.4080   18.8370  -12.5160 C.ar   30  TRP30       0.0810
     36  CE3       18.9350   20.6620  -12.0390 C.ar   30  TRP30       0.0012
     37  CZ2       18.0870   18.5130  -13.6970 C.ar   30  TRP30       0.0191
     38  CZ3       19.6100   20.3400  -13.2170 C.ar   30  TRP30       0.0001
     39  CH2       19.1800   19.2730  -14.0300 C.ar   30  TRP30       0.0015
     40  N         13.5080   13.3520  -12.1410 N.3    70  ASN70      -0.1225
     41  CA        13.4250   12.6680  -10.8520 C.3    70  ASN70       0.1785
     42  C         14.0290   13.4970   -9.7200 C.2    70  ASN70       0.2598
     43  O         14.1580   13.0190   -8.5900 O.2    70  ASN70      -0.2718
     44  CB        14.1370   11.3190  -10.9250 C.3    70  ASN70       0.1169
     45  CG        13.1880   10.1770  -11.2000 C.2    70  ASN70       0.2627
     46  OD1       12.3050   10.2800  -12.0490 O.2    70  ASN70      -0.2716
     47  ND2       13.3690    9.0730  -10.4820 N.am   70  ASN70      -0.0877
     48  N         14.4000   14.7380  -10.0210 N.am   71  GLY71      -0.1942
     49  CA        14.9840   15.5920   -9.0000 C.3    71  GLY71       0.2014
     50  C         16.4580   15.8340   -9.2520 C.2    71  GLY71       0.2639
     51  O         17.1110   15.0490   -9.9400 O.2    71  GLY71      -0.2714
     52  N         16.9900   16.9150   -8.6900 N.am   72  GLY72      -0.1954
     53  CA        18.3910   17.2270   -8.9060 C.3    72  GLY72       0.1869
     54  C         19.0350   18.1190   -7.8630 C.2    72  GLY72       0.2309
     55  O         18.4400   18.4200   -6.8270 O.2    72  GLY72      -0.2863
     56  N         20.6270   21.8100   -7.1580 N.3    74  PRO74      -0.2116
     57  CA        20.7750   23.1970   -7.6110 C.3    74  PRO74       0.1372
     58  C         22.2170   23.6300   -7.8880 C.2    74  PRO74       0.2244
     59  O         22.5000   24.1510   -8.9630 O.2    74  PRO74      -0.2868
     60  CB        20.1250   23.9910   -6.4840 C.3    74  PRO74       0.0268
     61  CG        18.9800   23.0910   -6.0990 C.3    74  PRO74       0.0207
     62  CD        19.6510   21.7210   -6.0560 C.3    74  PRO74       0.0892
     63  N         -1.2080   22.9020  -11.6780 N.3   108  HIS108     -0.1226
     64  CA        -0.5320   22.4780  -10.4580 C.3   108  HIS108      0.1752
     65  C         -1.3780   22.7530   -9.2180 C.2   108  HIS108      0.2596
     66  O         -1.3920   23.8710   -8.7040 O.2   108  HIS108     -0.2718
     67  CB         0.8110   23.2070  -10.3170 C.3   108  HIS108      0.0759
     68  CG         1.7770   22.9340  -11.4300 C.ar  108  HIS108      0.0818
     69  ND1        2.8000   22.0170  -11.3220 N.ar  108  HIS108     -0.2268
     70  CD2        1.8790   23.4650  -12.6730 C.ar  108  HIS108      0.1154
     71  CE1        3.4930   21.9960  -12.4470 C.ar  108  HIS108      0.1986
     72  NE2        2.9550   22.8660  -13.2830 N.ar  108  HIS108     -0.2212
     73  N         -2.0880   21.7300   -8.7480 N.am  109  HIS109     -0.1975
     74  CA        -2.9200   21.8380   -7.5510 C.3   109  HIS109      0.1656
     75  C         -3.9760   22.9420   -7.6030 C.2   109  HIS109      0.2291
     76  O         -4.3260   23.5360   -6.5800 O.2   109  HIS109     -0.2864
     77  CB        -2.0280   22.0270   -6.3220 C.3   109  HIS109      0.0771
     78  CG        -0.8880   21.0590   -6.2570 C.ar  109  HIS109      0.0820
     79  ND1       -0.8460   19.7550   -5.8940 N.ar  109  HIS109     -0.2267
     80  CD2        0.3920   21.3890   -6.6490 C.ar  109  HIS109      0.1154
     81  CE1        0.4460   19.3250   -6.0770 C.ar  109  HIS109      0.1986
     82  NE2        1.1730   20.3300   -6.5320 N.ar  109  HIS109     -0.2212
     83  N         15.9270   26.4970   -2.1110 N.3   171  ALA171     -0.1245
     84  CA        15.0910   25.3130   -1.9940 C.3   171  ALA171      0.1562
     85  C         14.5390   25.2030   -0.5830 C.2   171  ALA171      0.2260
     86  O         15.1540   25.6760    0.3750 O.2   171  ALA171     -0.2867
     87  CB        15.8950   24.0610   -2.3460 C.3   171  ALA171      0.0290
     88  N          8.6510   21.1450    1.1120 N.3   174  VAL174     -0.1245
     89  CA         7.2480   21.4070    0.8410 C.3   174  VAL174      0.1561
     90  C          6.3330   20.4660    1.6080 C.2   174  VAL174      0.2260
     91  O          6.4700   19.2440    1.5260 O.2   174  VAL174     -0.2867
     92  CB         6.9250   21.2670   -0.6650 C.3   174  VAL174      0.0252
     93  CG1        5.4250   21.4040   -0.8930 C.3   174  VAL174      0.0019
     94  CG2        7.6640   22.3310   -1.4510 C.3   174  VAL174      0.0019
     95  N          0.7250   23.7330   -0.8870 N.3   179  LEU179     -0.1245
     96  CA         0.0890   23.5090   -2.1800 C.3   179  LEU179      0.1561
     97  C         -1.0920   24.4340   -2.4630 C.2   179  LEU179      0.2260
     98  O         -1.3280   24.8070   -3.6120 O.2   179  LEU179     -0.2867
     99  CB        -0.3670   22.0470   -2.2940 C.3   179  LEU179      0.0270
    100  CG         0.6900   20.9690   -2.0140 C.3   179  LEU179      0.0019
    101  CD1        0.0660   19.5840   -2.1790 C.3   179  LEU179      0.0001
    102  CD2        1.8770   21.1370   -2.9590 C.3   179  LEU179      0.0001
    103  N          6.0670   16.6780    1.2570 N.3   194  MET194     -0.1230
    104  CA         5.9440   16.3780   -0.1680 C.3   194  MET194      0.1702
    105  C          7.3150   16.2140   -0.8210 C.2   194  MET194      0.2593
    106  O          7.4270   15.6530   -1.9100 O.2   194  MET194     -0.2718
    107  CB         5.1920   17.5060   -0.8820 C.3   194  MET194      0.0401
    108  CG         3.8560   17.8890   -0.2610 C.3   194  MET194      0.0596
    109  SD         2.5440   16.6990   -0.5620 S.3   194  MET194     -0.1393
    110  CE         2.8330   15.5500    0.7440 C.3   194  MET194      0.0692
    111  N          8.3500   16.7140   -0.1540 N.am  195  GLY195     -0.1942
    112  CA         9.6980   16.6240   -0.6860 C.3   195  GLY195      0.2014
    113  C         10.3190   18.0000   -0.8530 C.2   195  GLY195      0.2639
    114  O          9.6830   19.0110   -0.5520 O.2   195  GLY195     -0.2714
    115  N         11.5620   18.0410   -1.3270 N.am  196  GLY196     -0.1939
    116  CA        12.2410   19.3110   -1.5240 C.3   196  GLY196      0.2014
    117  C         11.7580   20.0050   -2.7860 C.2   196  GLY196      0.2639
    118  O         11.3220   19.3470   -3.7290 O.2   196  GLY196     -0.2714
    119  N         11.8390   21.3320   -2.8160 N.am  197  HIS197     -0.1959
    120  CA        11.3890   22.0840   -3.9810 C.3   197  HIS197      0.1787
    121  C         12.2860   23.2930   -4.2270 C.2   197  HIS197      0.2620
    122  O         12.3970   24.1710   -3.3740 O.2   197  HIS197     -0.2715
    123  CB         9.9400   22.5380   -3.7720 C.3   197  HIS197      0.0785
    124  CG         9.3320   23.2060   -4.9650 C.ar  197  HIS197      0.0821
    125  ND1        9.2370   22.5910   -6.1950 N.ar  197  HIS197     -0.2267
    126  CD2        8.7850   24.4360   -5.1160 C.ar  197  HIS197      0.1154
    127  CE1        8.6610   23.4160   -7.0530 C.ar  197  HIS197      0.1986
    128  NE2        8.3770   24.5410   -6.4230 N.ar  197  HIS197     -0.2212
    129  N         12.9260   23.3290   -5.3930 N.am  198  ALA198     -0.1977
    130  CA        13.8150   24.4320   -5.7430 C.3   198  ALA198      0.1597
    131  C         13.0100   25.5690   -6.3620 C.2   198  ALA198      0.2287
    132  O         12.0950   25.3360   -7.1560 O.2   198  ALA198     -0.2864
    133  CB        14.8870   23.9480   -6.7210 C.3   198  ALA198      0.0319
    134  N          5.1600   26.7820  -11.2970 N.3   219  TRP219     -0.1241
    135  CA         3.8960   26.0730  -11.4820 C.3   219  TRP219      0.1605
    136  C          2.8710   26.9070  -12.2520 C.2   219  TRP219      0.2264
    137  O          1.6680   26.8030  -12.0110 O.2   219  TRP219     -0.2867
    138  CB         3.3070   25.6780  -10.1210 C.3   219  TRP219      0.0550
    139  CG         4.1220   24.6630   -9.3620 C.ar  219  TRP219      0.0003
    140  CD1        5.1910   23.9470   -9.8290 C.ar  219  TRP219      0.0946
    141  CD2        3.9170   24.2390   -8.0050 C.ar  219  TRP219      0.0152
    142  NE1        5.6620   23.1050   -8.8470 N.ar  219  TRP219     -0.2442
    143  CE2        4.9000   23.2640   -7.7200 C.ar  219  TRP219      0.0810
    144  CE3        2.9980   24.5880   -7.0070 C.ar  219  TRP219      0.0012
    145  CZ2        4.9900   22.6330   -6.4720 C.ar  219  TRP219      0.0191
    146  CZ3        3.0860   23.9600   -5.7640 C.ar  219  TRP219      0.0001
    147  CH2        4.0770   22.9930   -5.5100 C.ar  219  TRP219      0.0015
    148  N         19.8680   26.3900    1.3370 N.3   243  GLU243     -0.1245
    149  CA        20.4280   25.8790    0.0880 C.3   243  GLU243      0.1567
    150  C         20.4370   26.9380   -1.0150 C.2   243  GLU243      0.2260
    151  O         19.9800   26.6940   -2.1280 O.2   243  GLU243     -0.2867
    152  CB        19.6130   24.6450   -0.3400 C.3   243  GLU243      0.0388
    153  CG        20.0950   23.9100   -1.5810 C.3   243  GLU243      0.1160
    154  CD        19.3770   22.5790   -1.7750 C.2   243  GLU243      0.3649
    155  OE1       19.3790   22.0550   -2.9080 O.co2 243  GLU243     -0.2457
    156  OE2       18.8180   22.0510   -0.7870 O.co2 243  GLU243     -0.2457
@<TRIPOS>BOND
     1     4     3    2
     2     3     2    1
     3    15    14    1
     4    14    11    1
     5     2     1    1
     6     2     5    1
     7    10    11    1
     8    11    12    1
     9    39    37   ar
    10    39    38   ar
    11     5     6    1
    12    37    35   ar
    13    72    70   ar
    14    72    71   ar
    15    38    36   ar
    16    12    13    2
    17    12    16   am
    18     6     7    1
    19    70    68   ar
    20    35    34   ar
    21    35    33   ar
    22    71    69   ar
    23    16    17    1
    24   136   137    2
    25   136   135    1
    26    40    41    1
    27    46    45    2
    28    36    33   ar
    29    34    32   ar
    30    63    64    1
    31    33    31   ar
    32     7     9   am
    33     7     8    2
    34    18    17    1
    35    18    19    2
    36   135   134    1
    37   135   138    1
    38    68    69   ar
    39    68    67    1
    40    45    44    1
    41    45    47   am
    42    20    21    1
    43    44    41    1
    44    28    29    2
    45    28    27    1
    46    41    42    1
    47    32    31   ar
    48    31    30    1
    49    64    67    1
    50    64    65    1
    51    21    22    1
    52    21    24    1
    53    23    22    2
    54   138   139    1
    55    22    26   am
    56    48    42   am
    57    48    49    1
    58    51    50    2
    59    26    27    1
    60   140   139   ar
    61   140   142   ar
    62    42    43    2
    63    27    30    1
    64   139   141   ar
    65    50    49    1
    66    50    52   am
    67    65    73   am
    68    65    66    2
    69    59    58    2
    70    53    52    1
    71    53    54    1
    72    24    25    1
    73   142   143   ar
    74    73    74    1
    75   141   143   ar
    76   141   144   ar
    77    58    57    1
    78    54    55    2
    79   143   145   ar
    80    57    56    1
    81    57    60    1
    82    75    74    1
    83    75    76    2
    84    74    77    1
    85    56    62    1
    86   132   131    2
    87   127   128   ar
    88   127   125   ar
    89   144   146   ar
    90   133   130    1
    91    80    82   ar
    92    80    78   ar
    93    82    81   ar
    94    60    61    1
    95   145   147   ar
    96   128   126   ar
    97   131   130    1
    98    77    78    1
    99    78    79   ar
   100   125   124   ar
   101    61    62    1
   102    81    79   ar
   103   146   147   ar
   104   130   129    1
   105   129   121   am
   106   126   124   ar
   107   124   123    1
   108   121   120    1
   109   121   122    2
   110   120   123    1
   111   120   119    1
   112   118   117    2
   113    98    97    2
   114   102   100    1
   115   155   154   ar
   116   119   117   am
   117   117   116    1
   118    97    96    1
   119    87    84    1
   120    99    96    1
   121    99   100    1
   122    96    95    1
   123   101   100    1
   124   151   150    2
   125    83    84    1
   126    84    85    1
   127   106   105    2
   128   154   153    1
   129   154   156   ar
   130   153   152    1
   131   116   115    1
   132    94    92    1
   133   115   113   am
   134   150   149    1
   135    93    92    1
   136   107   108    1
   137   107   104    1
   138   113   112    1
   139   113   114    2
   140   105   104    1
   141   105   111   am
   142   112   111    1
   143    92    89    1
   144    85    86    2
   145   109   108    1
   146   109   110    1
   147   152   149    1
   148   104   103    1
   149   149   148    1
   150    89    88    1
   151    89    90    1
   152    91    90    2
