@<TRIPOS>MOLECULE
tmp/2dc9A00.pdb
 194 192 0 0 0
SMALL
GASTEIGER

@<TRIPOS>ATOM
      1  N          7.1620   24.1340  -15.1730 N.3    23  GLN23      -0.1231
      2  CA         8.0100   22.9510  -15.2830 C.3    23  GLN23       0.1698
      3  C          7.2580   21.7310  -15.8080 C.2    23  GLN23       0.2593
      4  O          7.8670   20.7110  -16.1290 O.2    23  GLN23      -0.2718
      5  CB         8.6210   22.6250  -13.9220 C.3    23  GLN23       0.0381
      6  CG         7.6130   22.1190  -12.8990 C.3    23  GLN23       0.0905
      7  CD         8.2250   21.9510  -11.5290 C.2    23  GLN23       0.2608
      8  OE1        8.4180   22.9240  -10.7990 O.2    23  GLN23      -0.2717
      9  NE2        8.5530   20.7130  -11.1750 N.am   23  GLN23      -0.0878
     10  N          5.9360   21.8390  -15.8900 N.am   24  GLY24      -0.1942
     11  CA         5.1310   20.7320  -16.3770 C.3    24  GLY24       0.2014
     12  C          5.1420   19.5300  -15.4500 C.2    24  GLY24       0.2640
     13  O          5.4920   19.6420  -14.2760 O.2    24  GLY24      -0.2714
     14  N          4.7570   18.3750  -15.9840 N.am   25  SER25      -0.1935
     15  CA         4.7190   17.1360  -15.2100 C.3    25  SER25       0.2055
     16  C          6.1100   16.5070  -15.1920 C.2    25  SER25       0.2643
     17  O          6.3470   15.4540  -15.7920 O.2    25  SER25      -0.2714
     18  CB         3.7050   16.1740  -15.8330 C.3    25  SER25       0.2130
     19  OG         2.3990   16.7290  -15.7820 O.3    25  SER25      -0.2179
     20  N          7.0230   17.1650  -14.4870 N.am   26  CYS26      -0.1953
     21  CA         8.4130   16.7310  -14.3890 C.3    26  CYS26       0.1843
     22  C          9.0390   17.3840  -13.1540 C.2    26  CYS26       0.2626
     23  O          8.8040   18.5630  -12.8910 O.2    26  CYS26      -0.2714
     24  CB         9.1410   17.1570  -15.6710 C.3    26  CYS26       0.0997
     25  SG        10.9640   17.1650  -15.6580 S.3    26  CYS26      -0.0797
     26  N          9.8150   16.6170  -12.3890 N.am   27  GLY27      -0.1954
     27  CA        10.4470   17.1590  -11.1940 C.3    27  GLY27       0.1869
     28  C         11.7030   17.9410  -11.5280 C.2    27  GLY27       0.2309
     29  O         12.7860   17.6590  -11.0130 O.2    27  GLY27      -0.2863
     30  N         12.2830   21.2780  -10.9480 N.3    29  CYS29      -0.1221
     31  CA        12.4010   22.5680  -10.2750 C.3    29  CYS29       0.1808
     32  C         13.8600   22.9870  -10.1160 C.2    29  CYS29       0.2601
     33  O         14.1790   24.1730  -10.2190 O.2    29  CYS29      -0.2717
     34  CB        11.7560   22.4900   -8.8790 C.3    29  CYS29       0.0970
     35  SG        12.5140   21.2300   -7.8230 S.3    29  CYS29      -0.0800
     36  N         14.7420   22.0190   -9.8710 N.am   30  TRP30      -0.1976
     37  CA        16.1660   22.3270   -9.7070 C.3    30  TRP30       0.1640
     38  C         16.7070   23.0670  -10.9260 C.2    30  TRP30       0.2290
     39  O         17.5100   23.9990  -10.8010 O.2    30  TRP30      -0.2864
     40  CB        16.9880   21.0460   -9.4880 C.3    30  TRP30       0.0576
     41  CG        16.9400   20.0720  -10.6350 C.ar   30  TRP30       0.0006
     42  CD1       16.0160   19.0840  -10.8390 C.ar   30  TRP30       0.0946
     43  CD2       17.8480   20.0060  -11.7430 C.ar   30  TRP30       0.0152
     44  NE1       16.2940   18.4070  -12.0050 N.ar   30  TRP30      -0.2442
     45  CE2       17.4130   18.9530  -12.5790 C.ar   30  TRP30       0.0810
     46  CE3       18.9870   20.7380  -12.1120 C.ar   30  TRP30       0.0012
     47  CZ2       18.0780   18.6120  -13.7650 C.ar   30  TRP30       0.0191
     48  CZ3       19.6480   20.4000  -13.2940 C.ar   30  TRP30       0.0001
     49  CH2       19.1890   19.3450  -14.1040 C.ar   30  TRP30       0.0015
     50  N         13.5110   13.4540  -12.1130 N.3    70  ASN70      -0.1225
     51  CA        13.3780   12.7980  -10.8190 C.3    70  ASN70       0.1785
     52  C         14.0070   13.6320   -9.7060 C.2    70  ASN70       0.2598
     53  O         14.1340   13.1710   -8.5700 O.2    70  ASN70      -0.2718
     54  CB        14.0190   11.4080  -10.8520 C.3    70  ASN70       0.1169
     55  CG        13.2970   10.4570  -11.7850 C.2    70  ASN70       0.2627
     56  OD1       12.0680   10.3760  -11.7770 O.2    70  ASN70      -0.2716
     57  ND2       14.0580    9.7210  -12.5890 N.am   70  ASN70      -0.0877
     58  N         14.3900   14.8640  -10.0340 N.am   71  GLY71      -0.1942
     59  CA        14.9940   15.7350   -9.0400 C.3    71  GLY71       0.2014
     60  C         16.4680   15.9730   -9.3070 C.2    71  GLY71       0.2639
     61  O         17.1170   15.1740   -9.9810 O.2    71  GLY71      -0.2714
     62  N         17.0010   17.0660   -8.7690 N.am   72  GLY72      -0.1939
     63  CA        18.3990   17.3780   -8.9930 C.3    72  GLY72       0.2014
     64  C         19.0470   18.2770   -7.9560 C.2    72  GLY72       0.2639
     65  O         18.4460   18.6130   -6.9340 O.2    72  GLY72      -0.2714
     66  N         20.2820   18.6810   -8.2370 N.am   73  PHE73      -0.1960
     67  CA        21.0550   19.5130   -7.3220 C.3    73  PHE73       0.1756
     68  C         21.2710   20.9260   -7.8540 C.2    73  PHE73       0.2461
     69  O         21.9710   21.1220   -8.8460 O.2    73  PHE73      -0.2730
     70  CB        22.4130   18.8570   -7.0750 C.3    73  PHE73       0.0574
     71  CG        22.3340   17.3750   -6.8530 C.ar   73  PHE73      -0.0200
     72  CD1       23.0400   16.4990   -7.6730 C.ar   73  PHE73      -0.0042
     73  CD2       21.5500   16.8520   -5.8320 C.ar   73  PHE73      -0.0042
     74  CE1       22.9660   15.1210   -7.4790 C.ar   73  PHE73      -0.0003
     75  CE2       21.4700   15.4710   -5.6300 C.ar   73  PHE73      -0.0003
     76  CZ        22.1800   14.6070   -6.4570 C.ar   73  PHE73      -0.0000
     77  N         20.6730   21.9300   -7.1940 N.am   74  PRO74      -0.2727
     78  CA        20.8180   23.3240   -7.6210 C.3    74  PRO74       0.1402
     79  C         22.2620   23.7570   -7.9000 C.2    74  PRO74       0.2269
     80  O         22.5450   24.3020   -8.9660 O.2    74  PRO74      -0.2865
     81  CB        20.1780   24.0940   -6.4740 C.3    74  PRO74       0.0296
     82  CG        19.0250   23.1910   -6.1090 C.3    74  PRO74       0.0237
     83  CD        19.6830   21.8150   -6.1070 C.3    74  PRO74       0.0939
     84  N         -1.1790   22.9250  -11.7440 N.3   108  HIS108     -0.1226
     85  CA        -0.5120   22.4830  -10.5270 C.3   108  HIS108      0.1752
     86  C         -1.3880   22.7550   -9.3030 C.2   108  HIS108      0.2596
     87  O         -1.3910   23.8620   -8.7710 O.2   108  HIS108     -0.2718
     88  CB         0.8230   23.2210  -10.3620 C.3   108  HIS108      0.0759
     89  CG         1.7950   22.9900  -11.4790 C.ar  108  HIS108      0.0818
     90  ND1        2.8310   22.0860  -11.3900 N.ar  108  HIS108     -0.2268
     91  CD2        1.9000   23.5620  -12.7020 C.ar  108  HIS108      0.1154
     92  CE1        3.5340   22.1120  -12.5080 C.ar  108  HIS108      0.1986
     93  NE2        2.9900   23.0000  -13.3210 N.ar  108  HIS108     -0.2212
     94  N         -2.1320   21.7420   -8.8680 N.am  109  HIS109     -0.1975
     95  CA        -3.0030   21.8580   -7.7000 C.3   109  HIS109      0.1656
     96  C         -4.0140   22.9970   -7.7370 C.2   109  HIS109      0.2291
     97  O         -4.3480   23.5830   -6.7040 O.2   109  HIS109     -0.2864
     98  CB        -2.1650   21.9600   -6.4260 C.3   109  HIS109      0.0771
     99  CG        -1.0440   20.9720   -6.3730 C.ar  109  HIS109      0.0820
    100  ND1       -1.0540   19.6270   -6.2180 N.ar  109  HIS109     -0.2267
    101  CD2        0.2730   21.3280   -6.5620 C.ar  109  HIS109      0.1154
    102  CE1        0.2460   19.1990   -6.3220 C.ar  109  HIS109      0.1986
    103  NE2        1.0270   20.2430   -6.5280 N.ar  109  HIS109     -0.2212
    104  N         -1.6610   18.3630  -13.8800 N.3   117  CYS117     -0.1221
    105  CA        -0.3100   17.8230  -13.8830 C.3   117  CYS117      0.1808
    106  C         -0.3060   16.3940  -13.3570 C.2   117  CYS117      0.2602
    107  O         -1.1470   16.0170  -12.5400 O.2   117  CYS117     -0.2717
    108  CB         0.6170   18.6660  -13.0080 C.3   117  CYS117      0.0970
    109  SG         0.8360   20.3990  -13.5220 S.3   117  CYS117     -0.0800
    110  N          0.6510   15.6080  -13.8380 N.am  118  THR118     -0.1939
    111  CA         0.8170   14.2210  -13.4200 C.3   118  THR118      0.2028
    112  C          2.2820   14.0600  -13.0280 C.2   118  THR118      0.2642
    113  O          3.1730   14.2460  -13.8550 O.2   118  THR118     -0.2714
    114  CB         0.5030   13.2440  -14.5690 C.3   118  THR118      0.1808
    115  OG1        1.4650   13.4130  -15.6170 O.3   118  THR118     -0.2208
    116  CG2       -0.8890   13.5040  -15.1250 C.3   118  THR118      0.0379
    117  N          2.5350   13.7260  -11.7680 N.am  119  GLY119     -0.1954
    118  CA         3.9050   13.5650  -11.3110 C.3   119  GLY119      0.1869
    119  C          4.7570   12.7070  -12.2290 C.2   119  GLY119      0.2309
    120  O          5.9860   12.7940  -12.2130 O.2   119  GLY119     -0.2863
    121  N         16.0590   26.4930   -2.1100 N.3   171  ALA171     -0.1245
    122  CA        15.2410   25.2950   -2.0060 C.3   171  ALA171      0.1562
    123  C         14.6630   25.1800   -0.6060 C.2   171  ALA171      0.2260
    124  O         15.2580   25.6570    0.3630 O.2   171  ALA171     -0.2867
    125  CB        16.0750   24.0640   -2.3370 C.3   171  ALA171      0.0290
    126  N          8.7370   21.1510    1.0130 N.3   174  VAL174     -0.1245
    127  CA         7.3400   21.4110    0.7150 C.3   174  VAL174      0.1561
    128  C          6.4220   20.4340    1.4320 C.2   174  VAL174      0.2260
    129  O          6.5500   19.2180    1.2830 O.2   174  VAL174     -0.2867
    130  CB         7.0550   21.3210   -0.8010 C.3   174  VAL174      0.0252
    131  CG1        5.5520   21.4310   -1.0610 C.3   174  VAL174      0.0019
    132  CG2        7.7870   22.4340   -1.5270 C.3   174  VAL174      0.0019
    133  N          0.8550   23.6570   -0.9980 N.3   179  LEU179     -0.1245
    134  CA         0.2270   23.4340   -2.2970 C.3   179  LEU179      0.1561
    135  C         -0.9650   24.3440   -2.5820 C.2   179  LEU179      0.2260
    136  O         -1.2060   24.7140   -3.7290 O.2   179  LEU179     -0.2867
    137  CB        -0.2110   21.9680   -2.4180 C.3   179  LEU179      0.0270
    138  CG         0.8740   20.9110   -2.1800 C.3   179  LEU179      0.0019
    139  CD1        0.2660   19.5200   -2.2910 C.3   179  LEU179      0.0001
    140  CD2        2.0000   21.0910   -3.1880 C.3   179  LEU179      0.0001
    141  N          6.1250   16.6830    1.0530 N.3   194  MET194     -0.1230
    142  CA         5.9980   16.3610   -0.3670 C.3   194  MET194      0.1702
    143  C          7.3680   16.1380   -1.0020 C.2   194  MET194      0.2593
    144  O          7.4970   15.3970   -1.9750 O.2   194  MET194     -0.2718
    145  CB         5.2900   17.5000   -1.1030 C.3   194  MET194      0.0401
    146  CG         3.9510   17.9100   -0.5090 C.3   194  MET194      0.0596
    147  SD         2.6460   16.7070   -0.7850 S.3   194  MET194     -0.1393
    148  CE         2.9430   15.5910    0.5320 C.3   194  MET194      0.0692
    149  N          8.3810   16.7920   -0.4460 N.am  195  GLY195     -0.1942
    150  CA         9.7300   16.6690   -0.9650 C.3   195  GLY195      0.2014
    151  C         10.4000   18.0270   -1.0430 C.2   195  GLY195      0.2639
    152  O          9.7910   19.0430   -0.6990 O.2   195  GLY195     -0.2714
    153  N         11.6530   18.0510   -1.4860 N.am  196  GLY196     -0.1939
    154  CA        12.3650   19.3120   -1.6030 C.3   196  GLY196      0.2014
    155  C         11.9380   20.0250   -2.8730 C.2   196  GLY196      0.2639
    156  O         11.6060   19.3770   -3.8650 O.2   196  GLY196     -0.2714
    157  N         11.9420   21.3540   -2.8530 N.am  197  HIS197     -0.1959
    158  CA        11.5340   22.1220   -4.0210 C.3   197  HIS197      0.1787
    159  C         12.4550   23.3160   -4.2520 C.2   197  HIS197      0.2620
    160  O         12.6350   24.1460   -3.3660 O.2   197  HIS197     -0.2715
    161  CB        10.0850   22.5900   -3.8450 C.3   197  HIS197      0.0785
    162  CG         9.5130   23.2850   -5.0410 C.ar  197  HIS197      0.0821
    163  ND1        9.6480   22.7960   -6.3230 N.ar  197  HIS197     -0.2267
    164  CD2        8.7700   24.4130   -5.1450 C.ar  197  HIS197      0.1154
    165  CE1        9.0130   23.5930   -7.1640 C.ar  197  HIS197      0.1986
    166  NE2        8.4710   24.5800   -6.4750 N.ar  197  HIS197     -0.2212
    167  N         13.0370   23.3900   -5.4480 N.am  198  ALA198     -0.1977
    168  CA        13.9440   24.4790   -5.8020 C.3   198  ALA198      0.1597
    169  C         13.1630   25.6220   -6.4410 C.2   198  ALA198      0.2287
    170  O         12.3020   25.3990   -7.2940 O.2   198  ALA198     -0.2864
    171  CB        15.0160   23.9740   -6.7610 C.3   198  ALA198      0.0319
    172  N          5.2110   26.8630  -11.3590 N.3   219  TRP219     -0.1241
    173  CA         3.9610   26.1390  -11.5690 C.3   219  TRP219      0.1605
    174  C          2.9260   26.9820  -12.3150 C.2   219  TRP219      0.2264
    175  O          1.7280   26.8930  -12.0460 O.2   219  TRP219     -0.2867
    176  CB         3.3790   25.6830  -10.2210 C.3   219  TRP219      0.0550
    177  CG         4.2790   24.7460   -9.4440 C.ar  219  TRP219      0.0003
    178  CD1        5.3890   24.0960   -9.9090 C.ar  219  TRP219      0.0946
    179  CD2        4.1250   24.3450   -8.0750 C.ar  219  TRP219      0.0152
    180  NE1        5.9350   23.3170   -8.9140 N.ar  219  TRP219     -0.2442
    181  CE2        5.1790   23.4520   -7.7790 C.ar  219  TRP219      0.0810
    182  CE3        3.1960   24.6540   -7.0700 C.ar  219  TRP219      0.0012
    183  CZ2        5.3320   22.8620   -6.5170 C.ar  219  TRP219      0.0191
    184  CZ3        3.3470   24.0690   -5.8160 C.ar  219  TRP219      0.0001
    185  CH2        4.4100   23.1820   -5.5510 C.ar  219  TRP219      0.0015
    186  N         19.9850   26.4490    1.3820 N.3   243  GLU243     -0.1245
    187  CA        20.5460   25.9220    0.1420 C.3   243  GLU243      0.1567
    188  C         20.5580   26.9730   -0.9670 C.2   243  GLU243      0.2260
    189  O         20.1280   26.7130   -2.0870 O.2   243  GLU243     -0.2867
    190  CB        19.7220   24.6930   -0.2740 C.3   243  GLU243      0.0388
    191  CG        20.2130   23.9150   -1.4840 C.3   243  GLU243      0.1160
    192  CD        19.4810   22.5870   -1.6390 C.2   243  GLU243      0.3649
    193  OE1       19.5370   21.9870   -2.7330 O.co2 243  GLU243     -0.2457
    194  OE2       18.8530   22.1370   -0.6540 O.co2 243  GLU243     -0.2457
@<TRIPOS>BOND
     1    11    10    1
     2    11    12    1
     3     4     3    2
     4    14    12   am
     5    14    15    1
     6    10     3   am
     7    18    19    1
     8    18    15    1
     9     3     2    1
    10    17    16    2
    11    24    25    1
    12    24    21    1
    13   115   114    1
    14    12    13    2
    15     2     1    1
    16     2     5    1
    17    15    16    1
    18    16    20   am
    19   116   114    1
    20   114   111    1
    21    20    21    1
    22    21    22    1
    23    49    47   ar
    24    49    48   ar
    25     5     6    1
    26   105   104    1
    27   105   106    1
    28   105   108    1
    29   113   112    2
    30   110   111    1
    31   110   106   am
    32    47    45   ar
    33   109   108    1
    34   111   112    1
    35   106   107    2
    36    93    91   ar
    37    93    92   ar
    38    48    46   ar
    39    22    23    2
    40    22    26   am
    41   112   117   am
    42     6     7    1
    43    91    89   ar
    44    57    55   am
    45    45    44   ar
    46    45    43   ar
    47    92    90   ar
    48    26    27    1
    49   174   175    2
    50   174   173    1
    51   119   120    2
    52   119   118    1
    53    50    51    1
    54    46    43   ar
    55    44    42   ar
    56    55    56    2
    57    55    54    1
    58   117   118    1
    59    84    85    1
    60    43    41   ar
    61   173   172    1
    62   173   176    1
    63     7     9   am
    64     7     8    2
    65    28    27    1
    66    28    29    2
    67    89    90   ar
    68    89    88    1
    69    30    31    1
    70    38    39    2
    71    38    37    1
    72    54    51    1
    73    42    41   ar
    74    51    52    1
    75    41    40    1
    76    85    88    1
    77    85    86    1
    78    31    32    1
    79    31    34    1
    80   176   177    1
    81    33    32    2
    82    32    36   am
    83    58    52   am
    84    58    59    1
    85    61    60    2
    86   178   177   ar
    87   178   180   ar
    88    36    37    1
    89    37    40    1
    90    52    53    2
    91   177   179   ar
    92    60    59    1
    93    60    62   am
    94    86    94   am
    95    86    87    2
    96    63    62    1
    97    63    64    1
    98    80    79    2
    99   180   181   ar
   100    34    35    1
   101    94    95    1
   102    69    68    2
   103    66    64   am
   104    66    67    1
   105   179   181   ar
   106   179   182   ar
   107    64    65    2
   108    79    78    1
   109    68    67    1
   110    68    77   am
   111   181   183   ar
   112    96    95    1
   113    96    97    2
   114    95    98    1
   115    72    74   ar
   116    72    71   ar
   117    78    77    1
   118    78    81    1
   119    74    76   ar
   120    67    70    1
   121   170   169    2
   122    77    83    1
   123   165   166   ar
   124   165   163   ar
   125    70    71    1
   126   182   184   ar
   127    71    73   ar
   128   171   168    1
   129   101   103   ar
   130   101    99   ar
   131   103   102   ar
   132   183   185   ar
   133   166   164   ar
   134    81    82    1
   135    76    75   ar
   136   169   168    1
   137    98    99    1
   138    99   100   ar
   139   163   162   ar
   140   102   100   ar
   141    82    83    1
   142    73    75   ar
   143   184   185   ar
   144   168   167    1
   145   167   159   am
   146   164   162   ar
   147   162   161    1
   148   159   158    1
   149   159   160    2
   150   158   161    1
   151   158   157    1
   152   156   155    2
   153   136   135    2
   154   140   138    1
   155   155   157   am
   156   155   154    1
   157   193   192   ar
   158   135   134    1
   159   137   134    1
   160   137   138    1
   161   125   122    1
   162   134   133    1
   163   139   138    1
   164   121   122    1
   165   189   188    2
   166   122   123    1
   167   144   143    2
   168   192   191    1
   169   192   194   ar
   170   154   153    1
   171   132   130    1
   172   153   151   am
   173   191   190    1
   174   145   146    1
   175   145   142    1
   176   131   130    1
   177   151   150    1
   178   151   152    2
   179   143   149   am
   180   143   142    1
   181   188   187    1
   182   150   149    1
   183   130   127    1
   184   147   146    1
   185   147   148    1
   186   123   124    2
   187   142   141    1
   188   190   187    1
   189   187   186    1
   190   127   126    1
   191   127   128    1
   192   129   128    2
