@<TRIPOS>MOLECULE
tmp/2dcaA00.pdb
 176 171 0 0 0
SMALL
GASTEIGER

@<TRIPOS>ATOM
      1  N          7.1150   24.0060  -15.1760 N.3    23  GLN23      -0.1231
      2  CA         7.9790   22.8380  -15.2980 C.3    23  GLN23       0.1698
      3  C          7.2430   21.6170  -15.8430 C.2    23  GLN23       0.2593
      4  O          7.8650   20.6020  -16.1570 O.2    23  GLN23      -0.2718
      5  CB         8.6000   22.5040  -13.9430 C.3    23  GLN23       0.0381
      6  CG         7.6050   22.0040  -12.9040 C.3    23  GLN23       0.0905
      7  CD         8.2300   21.8730  -11.5300 C.2    23  GLN23       0.2608
      8  OE1        8.4430   22.8700  -10.8330 O.2    23  GLN23      -0.2717
      9  NE2        8.5460   20.6420  -11.1390 N.am   23  GLN23      -0.0878
     10  N          5.9220   21.7240  -15.9610 N.am   24  GLY24      -0.1942
     11  CA         5.1280   20.6190  -16.4740 C.3    24  GLY24       0.2014
     12  C          5.0880   19.4350  -15.5270 C.2    24  GLY24       0.2640
     13  O          5.4090   19.5700  -14.3490 O.2    24  GLY24      -0.2714
     14  N          4.6860   18.2730  -16.0400 N.am   25  SER25      -0.1935
     15  CA         4.6170   17.0530  -15.2360 C.3    25  SER25       0.2055
     16  C          6.0130   16.4330  -15.1780 C.2    25  SER25       0.2643
     17  O          6.2610   15.3560  -15.7230 O.2    25  SER25      -0.2714
     18  CB         3.6260   16.0690  -15.8650 C.3    25  SER25       0.2130
     19  OG         2.3120   16.6070  -15.8760 O.3    25  SER25      -0.2179
     20  N          6.9210   17.1230  -14.5000 N.am   26  CYS26      -0.1953
     21  CA         8.3050   16.6790  -14.3910 C.3    26  CYS26       0.1843
     22  C          8.9250   17.3270  -13.1570 C.2    26  CYS26       0.2626
     23  O          8.7030   18.5120  -12.9030 O.2    26  CYS26      -0.2714
     24  CB         9.0450   17.0930  -15.6740 C.3    26  CYS26       0.0997
     25  SG        10.8660   17.0860  -15.6690 S.3    26  CYS26      -0.0797
     26  N          9.6740   16.5440  -12.3820 N.am   27  GLY27      -0.1954
     27  CA        10.3040   17.0730  -11.1800 C.3    27  GLY27       0.1869
     28  C         11.5870   17.8030  -11.5200 C.2    27  GLY27       0.2309
     29  O         12.6610   17.4770  -11.0130 O.2    27  GLY27      -0.2863
     30  N         12.2240   21.1640  -11.0030 N.3    29  CYS29      -0.1221
     31  CA        12.3350   22.4690  -10.3580 C.3    29  CYS29       0.1808
     32  C         13.7870   22.9070  -10.1630 C.2    29  CYS29       0.2601
     33  O         14.0930   24.0960  -10.2500 O.2    29  CYS29      -0.2717
     34  CB        11.6470   22.4270   -8.9770 C.3    29  CYS29       0.0970
     35  SG        12.4010   21.3060   -7.7680 S.3    29  CYS29      -0.0800
     36  N         14.6770   21.9510   -9.9030 N.am   30  TRP30      -0.1976
     37  CA        16.0930   22.2670   -9.6970 C.3    30  TRP30       0.1640
     38  C         16.6610   22.9930  -10.9090 C.2    30  TRP30       0.2290
     39  O         17.4670   23.9190  -10.7780 O.2    30  TRP30      -0.2864
     40  CB        16.9120   20.9900   -9.4460 C.3    30  TRP30       0.0576
     41  CG        16.8510   19.9860  -10.5690 C.ar   30  TRP30       0.0006
     42  CD1       15.9190   19.0010  -10.7430 C.ar   30  TRP30       0.0946
     43  CD2       17.7520   19.8870  -11.6780 C.ar   30  TRP30       0.0152
     44  NE1       16.1870   18.2910  -11.8930 N.ar   30  TRP30      -0.2442
     45  CE2       17.3060   18.8160  -12.4850 C.ar   30  TRP30       0.0810
     46  CE3       18.8930   20.6040  -12.0710 C.ar   30  TRP30       0.0012
     47  CZ2       17.9630   18.4430  -13.6630 C.ar   30  TRP30       0.0191
     48  CZ3       19.5450   20.2330  -13.2440 C.ar   30  TRP30       0.0001
     49  CH2       19.0770   19.1610  -14.0250 C.ar   30  TRP30       0.0015
     50  N         13.4240   13.3610  -12.1100 N.3    70  ASN70      -0.1225
     51  CA        13.3500   12.6900  -10.8170 C.3    70  ASN70       0.1785
     52  C         13.9490   13.5470   -9.7040 C.2    70  ASN70       0.2598
     53  O         14.0570   13.1020   -8.5620 O.2    70  ASN70      -0.2718
     54  CB        14.0820   11.3520  -10.8750 C.3    70  ASN70       0.1169
     55  CG        13.1550   10.1980  -11.1670 C.2    70  ASN70       0.2627
     56  OD1       12.3490   10.2520  -12.0960 O.2    70  ASN70      -0.2716
     57  ND2       13.2680    9.1360  -10.3760 N.am   70  ASN70      -0.0877
     58  N         14.3390   14.7720  -10.0390 N.am   71  GLY71      -0.1942
     59  CA        14.9160   15.6540   -9.0380 C.3    71  GLY71       0.2014
     60  C         16.3950   15.8840   -9.2730 C.2    71  GLY71       0.2639
     61  O         17.0540   15.0910   -9.9430 O.2    71  GLY71      -0.2714
     62  N         16.9270   16.9630   -8.7130 N.am   72  GLY72      -0.1954
     63  CA        18.3310   17.2580   -8.9120 C.3    72  GLY72       0.1869
     64  C         18.9570   18.1550   -7.8650 C.2    72  GLY72       0.2309
     65  O         18.3260   18.5160   -6.8680 O.2    72  GLY72      -0.2863
     66  N         20.5700   21.7810   -7.1770 N.3    74  PRO74      -0.2116
     67  CA        20.7230   23.1650   -7.6330 C.3    74  PRO74       0.1372
     68  C         22.1650   23.6110   -7.8950 C.2    74  PRO74       0.2244
     69  O         22.4570   24.1320   -8.9700 O.2    74  PRO74      -0.2868
     70  CB        20.0450   23.9630   -6.5250 C.3    74  PRO74       0.0268
     71  CG        18.8960   23.0590   -6.1560 C.3    74  PRO74       0.0207
     72  CD        19.5740   21.6960   -6.0890 C.3    74  PRO74       0.0892
     73  N         -1.1190   22.8120  -11.7960 N.3   108  HIS108     -0.1226
     74  CA        -0.4020   22.3840  -10.6000 C.3   108  HIS108      0.1752
     75  C         -1.2260   22.6450   -9.3420 C.2   108  HIS108      0.2596
     76  O         -1.2500   23.7630   -8.8240 O.2   108  HIS108     -0.2718
     77  CB         0.9360   23.1290  -10.4930 C.3   108  HIS108      0.0759
     78  CG         1.8700   22.8730  -11.6360 C.ar  108  HIS108      0.0818
     79  ND1        2.8820   21.9390  -11.5780 N.ar  108  HIS108     -0.2268
     80  CD2        1.9330   23.4170  -12.8740 C.ar  108  HIS108      0.1154
     81  CE1        3.5280   21.9180  -12.7300 C.ar  108  HIS108      0.1986
     82  NE2        2.9710   22.8060  -13.5340 N.ar  108  HIS108     -0.2212
     83  N         -1.9050   21.6080   -8.8610 N.am  109  HIS109     -0.1975
     84  CA        -2.7180   21.6980   -7.6530 C.3   109  HIS109      0.1656
     85  C         -3.7880   22.7830   -7.6800 C.2   109  HIS109      0.2291
     86  O         -4.1210   23.3660   -6.6460 O.2   109  HIS109     -0.2864
     87  CB        -1.8090   21.8920   -6.4400 C.3   109  HIS109      0.0771
     88  CG        -0.6780   20.9170   -6.3880 C.ar  109  HIS109      0.0820
     89  ND1       -0.6480   19.6040   -6.0570 N.ar  109  HIS109     -0.2267
     90  CD2        0.6030   21.2420   -6.7800 C.ar  109  HIS109      0.1154
     91  CE1        0.6370   19.1630   -6.2590 C.ar  109  HIS109      0.1986
     92  NE2        1.3720   20.1710   -6.6940 N.ar  109  HIS109     -0.2212
     93  N         -1.6090   18.1940  -13.9890 N.3   117  CYS117     -0.1235
     94  CA        -0.2630   17.6450  -14.0210 C.3   117  CYS117      0.1677
     95  C         -0.2840   16.2080  -13.5110 C.2   117  CYS117      0.2270
     96  O         -1.1160   15.8490  -12.6800 O.2   117  CYS117     -0.2867
     97  CB         0.6810   18.4700  -13.1430 C.3   117  CYS117      0.0956
     98  SG         0.8880   20.2200  -13.6110 S.3   117  CYS117     -0.0801
     99  N          2.3980   13.5850  -11.8820 N.3   119  GLY119     -0.1225
    100  CA         3.7390   13.3850  -11.3580 C.3   119  GLY119      0.1811
    101  C          4.6640   12.5710  -12.2440 C.2   119  GLY119      0.2280
    102  O          5.8700   12.8170  -12.2910 O.2   119  GLY119     -0.2866
    103  N         15.9860   26.4260   -2.1460 N.3   171  ALA171     -0.1245
    104  CA        15.1750   25.2250   -2.0370 C.3   171  ALA171      0.1562
    105  C         14.6140   25.1070   -0.6300 C.2   171  ALA171      0.2260
    106  O         15.2220   25.5760    0.3350 O.2   171  ALA171     -0.2867
    107  CB        16.0110   23.9940   -2.3750 C.3   171  ALA171      0.0290
    108  N          8.6540   21.0770    0.9750 N.3   174  VAL174     -0.1245
    109  CA         7.2530   21.3450    0.6990 C.3   174  VAL174      0.1561
    110  C          6.3620   20.3860    1.4650 C.2   174  VAL174      0.2260
    111  O          6.5590   19.1690    1.4210 O.2   174  VAL174     -0.2867
    112  CB         6.9290   21.1970   -0.8040 C.3   174  VAL174      0.0252
    113  CG1        5.4290   21.3590   -1.0380 C.3   174  VAL174      0.0019
    114  CG2        7.6900   22.2350   -1.5990 C.3   174  VAL174      0.0019
    115  N          0.7970   23.5940   -0.9950 N.3   179  LEU179     -0.1245
    116  CA         0.1510   23.3690   -2.2810 C.3   179  LEU179      0.1561
    117  C         -1.0430   24.2730   -2.5530 C.2   179  LEU179      0.2260
    118  O         -1.3110   24.6130   -3.7080 O.2   179  LEU179     -0.2867
    119  CB        -0.3000   21.9090   -2.3910 C.3   179  LEU179      0.0270
    120  CG         0.7560   20.8410   -2.1050 C.3   179  LEU179      0.0019
    121  CD1        0.1270   19.4640   -2.2710 C.3   179  LEU179      0.0001
    122  CD2        1.9500   21.0150   -3.0450 C.3   179  LEU179      0.0001
    123  N          5.9210   16.6250    1.0200 N.3   194  MET194     -0.1230
    124  CA         5.8120   16.2380   -0.3820 C.3   194  MET194      0.1702
    125  C          7.2000   16.0270   -0.9830 C.2   194  MET194      0.2593
    126  O          7.3610   15.2900   -1.9530 O.2   194  MET194     -0.2718
    127  CB         5.0830   17.3280   -1.1690 C.3   194  MET194      0.0401
    128  CG         3.7270   17.7200   -0.6060 C.3   194  MET194      0.0596
    129  SD         2.4460   16.4960   -0.8950 S.3   194  MET194     -0.1393
    130  CE         2.6730   15.4340    0.4980 C.3   194  MET194      0.0692
    131  N          8.1940   16.6890   -0.4030 N.am  195  GLY195     -0.1942
    132  CA         9.5570   16.5710   -0.8880 C.3   195  GLY195      0.2014
    133  C         10.2370   17.9250   -0.9850 C.2   195  GLY195      0.2639
    134  O          9.6570   18.9470   -0.6160 O.2   195  GLY195     -0.2714
    135  N         11.4740   17.9320   -1.4740 N.am  196  GLY196     -0.1939
    136  CA        12.2050   19.1780   -1.6170 C.3   196  GLY196      0.2014
    137  C         11.7250   19.9120   -2.8540 C.2   196  GLY196      0.2639
    138  O         11.1960   19.2930   -3.7780 O.2   196  GLY196     -0.2714
    139  N         11.8980   21.2290   -2.8810 N.am  197  HIS197     -0.1959
    140  CA        11.4590   22.0100   -4.0280 C.3   197  HIS197      0.1787
    141  C         12.3740   23.2060   -4.2620 C.2   197  HIS197      0.2620
    142  O         12.5570   24.0460   -3.3800 O.2   197  HIS197     -0.2715
    143  CB        10.0190   22.4800   -3.8150 C.3   197  HIS197      0.0785
    144  CG         9.4210   23.1600   -5.0050 C.ar  197  HIS197      0.0821
    145  ND1        9.5580   22.6710   -6.2870 N.ar  197  HIS197     -0.2267
    146  CD2        8.6560   24.2730   -5.1060 C.ar  197  HIS197      0.1154
    147  CE1        8.9020   23.4530   -7.1250 C.ar  197  HIS197      0.1986
    148  NE2        8.3460   24.4310   -6.4340 N.ar  197  HIS197     -0.2212
    149  N         12.9460   23.2720   -5.4590 N.am  198  ALA198     -0.1977
    150  CA        13.8530   24.3520   -5.8110 C.3   198  ALA198      0.1597
    151  C         13.0700   25.4830   -6.4560 C.2   198  ALA198      0.2287
    152  O         12.2140   25.2470   -7.3120 O.2   198  ALA198     -0.2864
    153  CB        14.9310   23.8360   -6.7620 C.3   198  ALA198      0.0319
    154  N          5.1410   26.7240  -11.4030 N.3   219  TRP219     -0.1241
    155  CA         3.9020   25.9750  -11.5900 C.3   219  TRP219      0.1605
    156  C          2.8780   26.8060  -12.3550 C.2   219  TRP219      0.2264
    157  O          1.6720   26.6870  -12.1300 O.2   219  TRP219     -0.2867
    158  CB         3.3210   25.5670  -10.2290 C.3   219  TRP219      0.0550
    159  CG         4.1820   24.6020   -9.4520 C.ar  219  TRP219      0.0003
    160  CD1        5.2930   23.9420   -9.9010 C.ar  219  TRP219      0.0946
    161  CD2        3.9860   24.1790   -8.0940 C.ar  219  TRP219      0.0152
    162  NE1        5.8010   23.1360   -8.9060 N.ar  219  TRP219     -0.2442
    163  CE2        5.0190   23.2630   -7.7870 C.ar  219  TRP219      0.0810
    164  CE3        3.0380   24.4850   -7.1080 C.ar  219  TRP219      0.0012
    165  CZ2        5.1300   22.6480   -6.5320 C.ar  219  TRP219      0.0191
    166  CZ3        3.1470   23.8740   -5.8570 C.ar  219  TRP219      0.0001
    167  CH2        4.1880   22.9650   -5.5830 C.ar  219  TRP219      0.0015
    168  N         19.8780   26.3510    1.3430 N.3   243  GLU243     -0.1245
    169  CA        20.4600   25.8330    0.1080 C.3   243  GLU243      0.1567
    170  C         20.4520   26.8830   -1.0020 C.2   243  GLU243      0.2260
    171  O         19.9960   26.6280   -2.1110 O.2   243  GLU243     -0.2867
    172  CB        19.6720   24.5780   -0.3030 C.3   243  GLU243      0.0388
    173  CG        20.0730   23.9070   -1.6080 C.3   243  GLU243      0.1160
    174  CD        19.3080   22.6070   -1.8360 C.2   243  GLU243      0.3649
    175  OE1       19.2730   22.1200   -2.9860 O.co2 243  GLU243     -0.2457
    176  OE2       18.7470   22.0660   -0.8560 O.co2 243  GLU243     -0.2457
@<TRIPOS>BOND
     1    11    10    1
     2    11    12    1
     3     4     3    2
     4    14    12   am
     5    14    15    1
     6    10     3   am
     7    19    18    1
     8    18    15    1
     9     3     2    1
    10    17    16    2
    11    24    25    1
    12    24    21    1
    13    12    13    2
    14     2     1    1
    15     2     5    1
    16    15    16    1
    17    16    20   am
    18    20    21    1
    19    21    22    1
    20    49    47   ar
    21    49    48   ar
    22    94    93    1
    23    94    95    1
    24    94    97    1
    25     5     6    1
    26    47    45   ar
    27    98    97    1
    28    82    80   ar
    29    82    81   ar
    30    95    96    2
    31    48    46   ar
    32    22    23    2
    33    22    26   am
    34     6     7    1
    35    80    78   ar
    36    81    79   ar
    37    45    44   ar
    38    45    43   ar
    39    26    27    1
    40   156   157    2
    41   156   155    1
    42   102   101    2
    43   101   100    1
    44    50    51    1
    45    56    55    2
    46    46    43   ar
    47    44    42   ar
    48    99   100    1
    49    73    74    1
    50    43    41   ar
    51    78    79   ar
    52    78    77    1
    53   155   154    1
    54   155   158    1
    55     7     9   am
    56     7     8    2
    57    28    27    1
    58    28    29    2
    59    55    54    1
    60    55    57   am
    61    30    31    1
    62    38    39    2
    63    38    37    1
    64    54    51    1
    65    51    52    1
    66    42    41   ar
    67    74    77    1
    68    74    75    1
    69    41    40    1
    70    31    32    1
    71    31    34    1
    72    33    32    2
    73   158   159    1
    74    32    36   am
    75    58    52   am
    76    58    59    1
    77    61    60    2
    78    36    37    1
    79   160   159   ar
    80   160   162   ar
    81    52    53    2
    82    37    40    1
    83   159   161   ar
    84    75    83   am
    85    75    76    2
    86    60    59    1
    87    60    62   am
    88    34    35    1
    89    69    68    2
    90    63    62    1
    91    63    64    1
    92   162   163   ar
    93    83    84    1
    94   161   163   ar
    95   161   164   ar
    96    68    67    1
    97    64    65    2
    98   163   165   ar
    99    85    84    1
   100    85    86    2
   101    84    87    1
   102    67    66    1
   103    67    70    1
   104   152   151    2
   105    66    72    1
   106   147   148   ar
   107   147   145   ar
   108   164   166   ar
   109    90    92   ar
   110    90    88   ar
   111   153   150    1
   112    92    91   ar
   113   165   167   ar
   114    70    71    1
   115   151   150    1
   116    87    88    1
   117   148   146   ar
   118    88    89   ar
   119   145   144   ar
   120    91    89   ar
   121    71    72    1
   122   166   167   ar
   123   150   149    1
   124   149   141   am
   125   146   144   ar
   126   144   143    1
   127   141   140    1
   128   141   142    2
   129   140   143    1
   130   140   139    1
   131   138   137    2
   132   118   117    2
   133   122   120    1
   134   175   174   ar
   135   139   137   am
   136   137   136    1
   137   117   116    1
   138   119   116    1
   139   119   120    1
   140   107   104    1
   141   116   115    1
   142   121   120    1
   143   103   104    1
   144   171   170    2
   145   104   105    1
   146   126   125    2
   147   174   173    1
   148   174   176   ar
   149   136   135    1
   150   173   172    1
   151   114   112    1
   152   135   133   am
   153   127   128    1
   154   127   124    1
   155   113   112    1
   156   170   169    1
   157   133   132    1
   158   133   134    2
   159   125   131   am
   160   125   124    1
   161   129   128    1
   162   129   130    1
   163   132   131    1
   164   112   109    1
   165   105   106    2
   166   124   123    1
   167   172   169    1
   168   169   168    1
   169   109   108    1
   170   109   110    1
   171   111   110    2
