@<TRIPOS>MOLECULE
tmp/2dcbA00.pdb
 183 179 0 0 0
SMALL
GASTEIGER

@<TRIPOS>ATOM
      1  N          7.1640   24.0610  -15.1940 N.3    23  GLN23      -0.1231
      2  CA         8.0240   22.8900  -15.3170 C.3    23  GLN23       0.1698
      3  C          7.2770   21.6750  -15.8670 C.2    23  GLN23       0.2593
      4  O          7.8920   20.6710  -16.2210 O.2    23  GLN23      -0.2718
      5  CB         8.6390   22.5490  -13.9550 C.3    23  GLN23       0.0381
      6  CG         7.6410   21.9900  -12.9390 C.3    23  GLN23       0.0905
      7  CD         8.2420   21.8400  -11.5520 C.2    23  GLN23       0.2608
      8  OE1        8.4350   22.8240  -10.8380 O.2    23  GLN23      -0.2717
      9  NE2        8.5500   20.6040  -11.1680 N.am   23  GLN23      -0.0878
     10  N          5.9510   21.7710  -15.9370 N.am   24  GLY24      -0.1942
     11  CA         5.1560   20.6680  -16.4520 C.3    24  GLY24       0.2014
     12  C          5.1350   19.4610  -15.5340 C.2    24  GLY24       0.2640
     13  O          5.4780   19.5640  -14.3540 O.2    24  GLY24      -0.2714
     14  N          4.7330   18.3130  -16.0760 N.am   25  SER25      -0.1935
     15  CA         4.6710   17.0690  -15.3100 C.3    25  SER25       0.2055
     16  C          6.0600   16.4450  -15.2960 C.2    25  SER25       0.2643
     17  O          6.3050   15.4100  -15.9220 O.2    25  SER25      -0.2714
     18  CB         3.6650   16.1110  -15.9520 C.3    25  SER25       0.2130
     19  OG         2.3660   16.6830  -15.9620 O.3    25  SER25      -0.2179
     20  N          6.9640   17.0880  -14.5660 N.am   26  CYS26      -0.1953
     21  CA         8.3510   16.6540  -14.4730 C.3    26  CYS26       0.1843
     22  C          8.9790   17.3410  -13.2620 C.2    26  CYS26       0.2626
     23  O          8.7780   18.5380  -13.0550 O.2    26  CYS26      -0.2714
     24  CB         9.0710   17.0560  -15.7670 C.3    26  CYS26       0.0997
     25  SG        10.8930   17.0980  -15.7440 S.3    26  CYS26      -0.0797
     26  N          9.7220   16.5800  -12.4590 N.am   27  GLY27      -0.1954
     27  CA        10.3550   17.1450  -11.2760 C.3    27  GLY27       0.1869
     28  C         11.6410   17.8740  -11.6140 C.2    27  GLY27       0.2309
     29  O         12.7130   17.5350  -11.1140 O.2    27  GLY27      -0.2863
     30  N         12.2630   21.2160  -11.0660 N.3    29  CYS29      -0.1221
     31  CA        12.3630   22.5130  -10.4070 C.3    29  CYS29       0.1808
     32  C         13.8150   22.9330  -10.1990 C.2    29  CYS29       0.2601
     33  O         14.1290   24.1230  -10.2490 O.2    29  CYS29      -0.2717
     34  CB        11.6650   22.4570   -9.0350 C.3    29  CYS29       0.0970
     35  SG        12.4160   21.2750   -7.8850 S.3    29  CYS29      -0.0800
     36  N         14.7000   21.9640   -9.9650 N.am   30  TRP30      -0.1976
     37  CA        16.1150   22.2790   -9.7600 C.3    30  TRP30       0.1640
     38  C         16.6610   23.0120  -10.9840 C.2    30  TRP30       0.2290
     39  O         17.4270   23.9740  -10.8610 O.2    30  TRP30      -0.2864
     40  CB        16.9350   21.0020   -9.5040 C.3    30  TRP30       0.0576
     41  CG        16.9000   20.0050  -10.6300 C.ar   30  TRP30       0.0006
     42  CD1       15.9800   19.0080  -10.8210 C.ar   30  TRP30       0.0946
     43  CD2       17.8000   19.9400  -11.7420 C.ar   30  TRP30       0.0152
     44  NE1       16.2540   18.3280  -11.9870 N.ar   30  TRP30      -0.2442
     45  CE2       17.3650   18.8810  -12.5720 C.ar   30  TRP30       0.0810
     46  CE3       18.9330   20.6770  -12.1220 C.ar   30  TRP30       0.0012
     47  CZ2       18.0230   18.5420  -13.7630 C.ar   30  TRP30       0.0191
     48  CZ3       19.5860   20.3400  -13.3100 C.ar   30  TRP30       0.0001
     49  CH2       19.1270   19.2830  -14.1130 C.ar   30  TRP30       0.0015
     50  N         13.4610   13.3670  -12.1810 N.3    70  ASN70      -0.1225
     51  CA        13.3480   12.7020  -10.8850 C.3    70  ASN70       0.1785
     52  C         13.9390   13.5480   -9.7590 C.2    70  ASN70       0.2598
     53  O         14.0510   13.0880   -8.6200 O.2    70  ASN70      -0.2718
     54  CB        14.0550   11.3480  -10.9280 C.3    70  ASN70       0.1169
     55  CG        13.1410   10.2310  -11.3740 C.2    70  ASN70       0.2627
     56  OD1       12.2580   10.4320  -12.2060 O.2    70  ASN70      -0.2716
     57  ND2       13.3530    9.0380  -10.8270 N.am   70  ASN70      -0.0877
     58  N         14.3120   14.7840  -10.0790 N.am   71  GLY71      -0.1942
     59  CA        14.8900   15.6630   -9.0760 C.3    71  GLY71       0.2017
     60  C         16.3680   15.8850   -9.3320 C.2    71  GLY71       0.2678
     61  O         17.0000   15.1100  -10.0480 O.2    71  GLY71      -0.2710
     62  N         16.9290   16.9360   -8.7440 N.am   72  GLY72      -0.1729
     63  CA        18.3370   17.2240   -8.9620 C.2    72  GLY72       0.1340
     64  C         18.9820   18.1230   -7.9240 C.2    72  GLY72       0.2521
     65  O         18.3860   18.4290   -6.8910 O.2    72  GLY72      -0.2816
     66  N         20.6110   21.8240   -7.2470 N.3    74  PRO74      -0.2116
     67  CA        20.7720   23.1990   -7.7270 C.3    74  PRO74       0.1372
     68  C         22.2170   23.6350   -7.9820 C.2    74  PRO74       0.2244
     69  O         22.5200   24.1670   -9.0490 O.2    74  PRO74      -0.2868
     70  CB        20.0930   24.0200   -6.6350 C.3    74  PRO74       0.0268
     71  CG        18.9460   23.1270   -6.2460 C.3    74  PRO74       0.0207
     72  CD        19.6230   21.7640   -6.1520 C.3    74  PRO74       0.0892
     73  N         -1.1760   22.8570  -11.8070 N.3   108  HIS108     -0.1226
     74  CA        -0.5010   22.4340  -10.5840 C.3   108  HIS108      0.1752
     75  C         -1.3550   22.7210   -9.3480 C.2   108  HIS108      0.2596
     76  O         -1.3850   23.8490   -8.8580 O.2   108  HIS108     -0.2718
     77  CB         0.8430   23.1640  -10.4440 C.3   108  HIS108      0.0759
     78  CG         1.8090   22.8910  -11.5560 C.ar  108  HIS108      0.0818
     79  ND1        2.7960   21.9310  -11.4690 N.ar  108  HIS108     -0.2268
     80  CD2        1.9420   23.4560  -12.7790 C.ar  108  HIS108      0.1154
     81  CE1        3.4960   21.9190  -12.5900 C.ar  108  HIS108      0.1986
     82  NE2        2.9980   22.8350  -13.4010 N.ar  108  HIS108     -0.2212
     83  N         -2.0550   21.7010   -8.8590 N.am  109  HIS109     -0.1975
     84  CA        -2.8900   21.8250   -7.6660 C.3   109  HIS109      0.1656
     85  C         -3.9640   22.9040   -7.7170 C.2   109  HIS109      0.2291
     86  O         -4.3400   23.4680   -6.6870 O.2   109  HIS109     -0.2864
     87  CB        -2.0030   22.0490   -6.4430 C.3   109  HIS109      0.0771
     88  CG        -0.9110   21.0380   -6.3140 C.ar  109  HIS109      0.0820
     89  ND1       -0.9340   19.7530   -5.8920 N.ar  109  HIS109     -0.2267
     90  CD2        0.3830   21.2860   -6.7210 C.ar  109  HIS109      0.1154
     91  CE1        0.3330   19.2500   -6.0550 C.ar  109  HIS109      0.1986
     92  NE2        1.1080   20.1940   -6.5550 N.ar  109  HIS109     -0.2212
     93  N         -1.6540   18.2680  -14.0250 N.3   117  CYS117     -0.1221
     94  CA        -0.3110   17.7090  -14.0520 C.3   117  CYS117      0.1808
     95  C         -0.3500   16.2750  -13.5440 C.2   117  CYS117      0.2602
     96  O         -1.1990   15.9210  -12.7250 O.2   117  CYS117     -0.2717
     97  CB         0.6350   18.5160  -13.1620 C.3   117  CYS117      0.0970
     98  SG         0.8780   20.2620  -13.6250 S.3   117  CYS117     -0.0800
     99  N          0.5680   15.4570  -14.0440 N.am  118  THR118     -0.1939
    100  CA         0.6720   14.0640  -13.6310 C.3   118  THR118      0.2028
    101  C          2.0590   13.8780  -13.0270 C.2   118  THR118      0.2642
    102  O          3.0250   14.4960  -13.4730 O.2   118  THR118     -0.2714
    103  CB         0.5000   13.1040  -14.8250 C.3   118  THR118      0.1808
    104  OG1        1.4910   13.3890  -15.8190 O.3   118  THR118     -0.2208
    105  CG2       -0.8870   13.2590  -15.4360 C.3   118  THR118      0.0379
    106  N          2.1580   13.0420  -12.0020 N.am  119  GLY119     -0.1954
    107  CA         3.4440   12.8250  -11.3660 C.3   119  GLY119      0.1869
    108  C          4.4620   12.1800  -12.2850 C.2   119  GLY119      0.2309
    109  O          5.6690   12.3740  -12.1300 O.2   119  GLY119     -0.2863
    110  N         15.9880   26.4430   -2.1660 N.3   171  ALA171     -0.1245
    111  CA        15.1580   25.2530   -2.0400 C.3   171  ALA171      0.1562
    112  C         14.6060   25.1630   -0.6270 C.2   171  ALA171      0.2260
    113  O         15.2040   25.6800    0.3200 O.2   171  ALA171     -0.2867
    114  CB        15.9710   24.0010   -2.3680 C.3   171  ALA171      0.0290
    115  N          8.6860   21.1020    1.0670 N.3   174  VAL174     -0.1245
    116  CA         7.2820   21.3530    0.7910 C.3   174  VAL174      0.1561
    117  C          6.3820   20.3790    1.5380 C.2   174  VAL174      0.2260
    118  O          6.5600   19.1610    1.4570 O.2   174  VAL174     -0.2867
    119  CB         6.9740   21.2340   -0.7240 C.3   174  VAL174      0.0252
    120  CG1        5.4740   21.3650   -0.9690 C.3   174  VAL174      0.0019
    121  CG2        7.7190   22.3130   -1.4930 C.3   174  VAL174      0.0019
    122  N          0.7870   23.6540   -0.9640 N.3   179  LEU179     -0.1245
    123  CA         0.1470   23.4320   -2.2570 C.3   179  LEU179      0.1561
    124  C         -1.0530   24.3280   -2.5380 C.2   179  LEU179      0.2260
    125  O         -1.3390   24.6390   -3.6960 O.2   179  LEU179     -0.2867
    126  CB        -0.2900   21.9680   -2.3820 C.3   179  LEU179      0.0270
    127  CG         0.7790   20.9000   -2.1380 C.3   179  LEU179      0.0019
    128  CD1        0.1520   19.5170   -2.2570 C.3   179  LEU179      0.0001
    129  CD2        1.9160   21.0670   -3.1350 C.3   179  LEU179      0.0001
    130  N          6.0810   16.6260    1.2000 N.3   194  MET194     -0.1230
    131  CA         6.0100   16.2960   -0.2200 C.3   194  MET194      0.1702
    132  C          7.3990   16.0940   -0.8230 C.2   194  MET194      0.2593
    133  O          7.5570   15.3650   -1.7980 O.2   194  MET194     -0.2718
    134  CB         5.2970   17.4170   -0.9810 C.3   194  MET194      0.0401
    135  CG         3.9340   17.7970   -0.4300 C.3   194  MET194      0.0596
    136  SD         2.6560   16.5850   -0.7760 S.3   194  MET194     -0.1393
    137  CE         2.9070   15.4440    0.5480 C.3   194  MET194      0.0692
    138  N          8.3960   16.7500   -0.2400 N.am  195  GLY195     -0.1942
    139  CA         9.7560   16.6380   -0.7350 C.3   195  GLY195      0.2014
    140  C         10.3950   18.0060   -0.8960 C.2   195  GLY195      0.2639
    141  O          9.7680   19.0260   -0.6020 O.2   195  GLY195     -0.2714
    142  N         11.6440   18.0320   -1.3560 N.am  196  GLY196     -0.1939
    143  CA        12.3340   19.2950   -1.5500 C.3   196  GLY196      0.2014
    144  C         11.8610   19.9680   -2.8240 C.2   196  GLY196      0.2639
    145  O         11.4380   19.2980   -3.7680 O.2   196  GLY196     -0.2714
    146  N         11.9260   21.2940   -2.8640 N.am  197  HIS197     -0.1959
    147  CA        11.4840   22.0230   -4.0450 C.3   197  HIS197      0.1787
    148  C         12.3630   23.2440   -4.2690 C.2   197  HIS197      0.2620
    149  O         12.4970   24.0880   -3.3860 O.2   197  HIS197     -0.2715
    150  CB        10.0220   22.4430   -3.8740 C.3   197  HIS197      0.0785
    151  CG         9.4170   23.0480   -5.1010 C.ar  197  HIS197      0.0821
    152  ND1        9.4170   22.4100   -6.3220 N.ar  197  HIS197     -0.2267
    153  CD2        8.7780   24.2270   -5.2920 C.ar  197  HIS197      0.1154
    154  CE1        8.8050   23.1690   -7.2130 C.ar  197  HIS197      0.1986
    155  NE2        8.4070   24.2770   -6.6140 N.ar  197  HIS197     -0.2212
    156  N         12.9620   23.3280   -5.4540 N.am  198  ALA198     -0.1977
    157  CA        13.8410   24.4420   -5.7930 C.3   198  ALA198      0.1597
    158  C         13.0390   25.5710   -6.4300 C.2   198  ALA198      0.2287
    159  O         12.1390   25.3250   -7.2270 O.2   198  ALA198     -0.2864
    160  CB        14.9370   23.9690   -6.7500 C.3   198  ALA198      0.0319
    161  N          5.1600   26.7650  -11.3930 N.3   219  TRP219     -0.1241
    162  CA         3.9070   26.0450  -11.5900 C.3   219  TRP219      0.1605
    163  C          2.8830   26.8920  -12.3370 C.2   219  TRP219      0.2264
    164  O          1.6820   26.8060  -12.0720 O.2   219  TRP219     -0.2867
    165  CB         3.3150   25.6190  -10.2400 C.3   219  TRP219      0.0550
    166  CG         4.1560   24.6340   -9.4740 C.ar  219  TRP219      0.0003
    167  CD1        5.2570   23.9600   -9.9270 C.ar  219  TRP219      0.0946
    168  CD2        3.9560   24.2120   -8.1190 C.ar  219  TRP219      0.0152
    169  NE1        5.7550   23.1460   -8.9340 N.ar  219  TRP219     -0.2442
    170  CE2        4.9760   23.2830   -7.8150 C.ar  219  TRP219      0.0810
    171  CE3        3.0120   24.5300   -7.1300 C.ar  219  TRP219      0.0012
    172  CZ2        5.0810   22.6670   -6.5620 C.ar  219  TRP219      0.0191
    173  CZ3        3.1150   23.9170   -5.8820 C.ar  219  TRP219      0.0001
    174  CH2        4.1440   22.9970   -5.6110 C.ar  219  TRP219      0.0015
    175  N         19.8870   26.4290    1.3190 N.3   243  GLU243     -0.1245
    176  CA        20.4590   25.9280    0.0720 C.3   243  GLU243      0.1567
    177  C         20.4620   26.9820   -1.0360 C.2   243  GLU243      0.2260
    178  O         20.0170   26.7270   -2.1510 O.2   243  GLU243     -0.2867
    179  CB        19.6760   24.6780   -0.3610 C.3   243  GLU243      0.0388
    180  CG        20.1790   23.9750   -1.6140 C.3   243  GLU243      0.1160
    181  CD        19.5200   22.6190   -1.8180 C.2   243  GLU243      0.3649
    182  OE1       19.5110   22.1210   -2.9640 O.co2 243  GLU243     -0.2457
    183  OE2       19.0190   22.0450   -0.8240 O.co2 243  GLU243     -0.2457
@<TRIPOS>BOND
     1    11    10    1
     2    11    12    1
     3     4     3    2
     4    14    12   am
     5    14    15    1
     6    19    18    1
     7    18    15    1
     8    10     3   am
     9    17    16    2
    10     3     2    1
    11   104   103    1
    12    24    25    1
    13    24    21    1
    14    12    13    2
    15   105   103    1
    16     2     1    1
    17     2     5    1
    18    15    16    1
    19    16    20   am
    20   103   100    1
    21    20    21    1
    22    21    22    1
    23    49    47   ar
    24    49    48   ar
    25    94    93    1
    26    94    95    1
    27    94    97    1
    28    99   100    1
    29    99    95   am
    30     5     6    1
    31    47    45   ar
    32   100   101    1
    33    98    97    1
    34    95    96    2
    35   102   101    2
    36    82    80   ar
    37    82    81   ar
    38    48    46   ar
    39    22    23    2
    40    22    26   am
    41   101   106   am
    42     6     7    1
    43    80    78   ar
    44    81    79   ar
    45    45    44   ar
    46    45    43   ar
    47    26    27    1
    48   163   164    2
    49   163   162    1
    50   108   109    2
    51   108   107    1
    52    56    55    2
    53    50    51    1
    54    46    43   ar
    55   106   107    1
    56    44    42   ar
    57    73    74    1
    58    43    41   ar
    59    28    27    1
    60    28    29    2
    61   162   161    1
    62   162   165    1
    63    78    79   ar
    64    78    77    1
    65     7     9   am
    66     7     8    2
    67    55    54    1
    68    55    57   am
    69    30    31    1
    70    38    39    2
    71    38    37    1
    72    54    51    1
    73    51    52    1
    74    42    41   ar
    75    41    40    1
    76    74    77    1
    77    74    75    1
    78    31    32    1
    79    31    34    1
    80    33    32    2
    81   165   166    1
    82    32    36   am
    83    58    52   am
    84    58    59    1
    85    61    60    2
    86    36    37    1
    87   167   166   ar
    88   167   169   ar
    89    37    40    1
    90    52    53    2
    91   166   168   ar
    92    75    83   am
    93    75    76    2
    94    60    59    1
    95    60    62    1
    96    69    68    2
    97    34    35    1
    98    63    62    2
    99    63    64    1
   100   169   170   ar
   101    83    84    1
   102   168   170   ar
   103   168   171   ar
   104    68    67    1
   105    64    65    2
   106   170   172   ar
   107    67    66    1
   108    67    70    1
   109    85    84    1
   110    85    86    2
   111    84    87    1
   112    66    72    1
   113   159   158    2
   114   154   155   ar
   115   154   152   ar
   116   171   173   ar
   117   160   157    1
   118    90    92   ar
   119    90    88   ar
   120    70    71    1
   121   155   153   ar
   122   172   174   ar
   123    92    91   ar
   124    87    88    1
   125   158   157    1
   126   152   151   ar
   127    88    89   ar
   128    71    72    1
   129    91    89   ar
   130   173   174   ar
   131   157   156    1
   132   156   148   am
   133   153   151   ar
   134   151   150    1
   135   148   147    1
   136   148   149    2
   137   147   150    1
   138   147   146    1
   139   145   144    2
   140   125   124    2
   141   129   127    1
   142   182   181   ar
   143   146   144   am
   144   144   143    1
   145   124   123    1
   146   126   123    1
   147   126   127    1
   148   114   111    1
   149   128   127    1
   150   123   122    1
   151   110   111    1
   152   178   177    2
   153   111   112    1
   154   181   180    1
   155   181   183   ar
   156   133   132    2
   157   180   179    1
   158   143   142    1
   159   121   119    1
   160   142   140   am
   161   177   176    1
   162   134   135    1
   163   134   131    1
   164   120   119    1
   165   140   139    1
   166   140   141    2
   167   132   138   am
   168   132   131    1
   169   136   135    1
   170   136   137    1
   171   139   138    1
   172   119   116    1
   173   112   113    2
   174   179   176    1
   175   131   130    1
   176   176   175    1
   177   116   115    1
   178   116   117    1
   179   118   117    2
