@<TRIPOS>MOLECULE
tmp/2dccA00.pdb
 172 170 0 0 0
SMALL
GASTEIGER

@<TRIPOS>ATOM
      1  N          7.2400   24.1810  -15.1190 N.3    23  GLN23      -0.1231
      2  CA         8.0870   22.9990  -15.2510 C.3    23  GLN23       0.1698
      3  C          7.3290   21.7750  -15.7750 C.2    23  GLN23       0.2593
      4  O          7.9370   20.7660  -16.1320 O.2    23  GLN23      -0.2718
      5  CB         8.7230   22.6750  -13.8950 C.3    23  GLN23       0.0381
      6  CG         7.7230   22.2150  -12.8360 C.3    23  GLN23       0.0905
      7  CD         8.3660   22.0100  -11.4760 C.2    23  GLN23       0.2608
      8  OE1        8.5330   22.9570  -10.7040 O.2    23  GLN23      -0.2717
      9  NE2        8.7460   20.7710  -11.1810 N.am   23  GLN23      -0.0878
     10  N          6.0050   21.8680  -15.8190 N.am   24  GLY24      -0.1942
     11  CA         5.2020   20.7560  -16.3020 C.3    24  GLY24       0.2014
     12  C          5.2340   19.5600  -15.3680 C.2    24  GLY24       0.2640
     13  O          5.5730   19.6930  -14.1910 O.2    24  GLY24      -0.2714
     14  N          4.8790   18.3890  -15.8920 N.am   25  SER25      -0.1935
     15  CA         4.8720   17.1620  -15.1000 C.3    25  SER25       0.2055
     16  C          6.2640   16.5390  -15.1390 C.2    25  SER25       0.2643
     17  O          6.4950   15.5260  -15.8090 O.2    25  SER25      -0.2714
     18  CB         3.8330   16.1870  -15.6600 C.3    25  SER25       0.2130
     19  OG         2.5300   16.7430  -15.5710 O.3    25  SER25      -0.2179
     20  N          7.1840   17.1600  -14.4100 N.am   26  CYS26      -0.1953
     21  CA         8.5770   16.7280  -14.3490 C.3    26  CYS26       0.1843
     22  C          9.2200   17.4110  -13.1400 C.2    26  CYS26       0.2626
     23  O          9.0290   18.6080  -12.9330 O.2    26  CYS26      -0.2714
     24  CB         9.2760   17.1420  -15.6530 C.3    26  CYS26       0.0997
     25  SG        11.0990   17.1780  -15.6610 S.3    26  CYS26      -0.0797
     26  N          9.9570   16.6490  -12.3370 N.am   27  GLY27      -0.1954
     27  CA        10.5950   17.2140  -11.1570 C.3    27  GLY27       0.1869
     28  C         11.8490   17.9910  -11.5060 C.2    27  GLY27       0.2309
     29  O         12.9400   17.6930  -11.0180 O.2    27  GLY27      -0.2863
     30  N         12.4110   21.3180  -10.9010 N.3    29  CYS29      -0.1221
     31  CA        12.5200   22.6010  -10.2100 C.3    29  CYS29       0.1808
     32  C         13.9730   23.0480  -10.0750 C.2    29  CYS29       0.2601
     33  O         14.2710   24.2370  -10.1970 O.2    29  CYS29      -0.2717
     34  CB        11.9060   22.4890   -8.8020 C.3    29  CYS29       0.0970
     35  SG        12.5220   21.1510   -7.7470 S.3    29  CYS29      -0.0800
     36  N         14.8720   22.0970   -9.8310 N.am   30  TRP30      -0.1976
     37  CA        16.2920   22.4190   -9.6840 C.3    30  TRP30       0.1640
     38  C         16.8190   23.1670  -10.9060 C.2    30  TRP30       0.2290
     39  O         17.5910   24.1220  -10.7820 O.2    30  TRP30      -0.2864
     40  CB        17.1200   21.1460   -9.4760 C.3    30  TRP30       0.0576
     41  CG        17.0390   20.1750  -10.6160 C.ar   30  TRP30       0.0006
     42  CD1       16.0830   19.2170  -10.8170 C.ar   30  TRP30       0.0946
     43  CD2       17.9340   20.0890  -11.7320 C.ar   30  TRP30       0.0152
     44  NE1       16.3320   18.5390  -11.9880 N.ar   30  TRP30      -0.2442
     45  CE2       17.4600   19.0550  -12.5700 C.ar   30  TRP30       0.0810
     46  CE3       19.0910   20.7890  -12.1060 C.ar   30  TRP30       0.0012
     47  CZ2       18.1040   18.7010  -13.7650 C.ar   30  TRP30       0.0191
     48  CZ3       19.7310   20.4380  -13.2980 C.ar   30  TRP30       0.0001
     49  CH2       19.2350   19.4040  -14.1100 C.ar   30  TRP30       0.0015
     50  N         22.4010   15.6780  -10.9460 N.3    66  GLY66      -0.1210
     51  CA        21.4250   14.8230  -10.3030 C.3    66  GLY66       0.1956
     52  C         20.7450   13.8370  -11.2320 C.2    66  GLY66       0.2611
     53  O         21.4160   13.0750  -11.9300 O.2    66  GLY66      -0.2717
     54  N         19.4140   13.8690  -11.2690 N.am   67  ASP67      -0.1973
     55  CA        18.6700   12.9110  -12.0780 C.3    67  ASP67       0.1709
     56  C         17.5110   13.4490  -12.9250 C.2    67  ASP67       0.2293
     57  O         16.4060   12.9120  -12.8750 O.2    67  ASP67      -0.2864
     58  CB        18.1450   11.8040  -11.1570 C.3    67  ASP67       0.1436
     59  CG        17.7650   10.5470  -11.9100 C.2    67  ASP67       0.3671
     60  OD1       17.0200    9.7190  -11.3430 O.co2  67  ASP67      -0.2456
     61  OD2       18.2190   10.3810  -13.0620 O.co2  67  ASP67      -0.2456
     62  N         14.3230   14.6790  -14.5280 N.3    69  CYS69      -0.1221
     63  CA        12.9660   14.8560  -14.0090 C.3    69  CYS69       0.1808
     64  C         12.7450   14.1970  -12.6600 C.2    69  CYS69       0.2601
     65  O         11.6780   14.3440  -12.0690 O.2    69  CYS69      -0.2717
     66  CB        11.9130   14.3280  -14.9910 C.3    69  CYS69       0.0970
     67  SG        11.6590   15.3900  -16.4440 S.3    69  CYS69      -0.0800
     68  N         13.7440   13.4680  -12.1750 N.am   70  ASN70      -0.1960
     69  CA        13.6240   12.8140  -10.8790 C.3    70  ASN70       0.1819
     70  C         14.2410   13.6650   -9.7780 C.2    70  ASN70       0.2622
     71  O         14.3580   13.2280   -8.6320 O.2    70  ASN70      -0.2715
     72  CB        14.2850   11.4340  -10.9110 C.3    70  ASN70       0.1195
     73  CG        13.5490   10.4650  -11.8120 C.2    70  ASN70       0.2630
     74  OD1       12.3220   10.3720  -11.7620 O.2    70  ASN70      -0.2716
     75  ND2       14.2920    9.7330  -12.6350 N.am   70  ASN70      -0.0877
     76  N         14.6310   14.8870  -10.1310 N.am   71  GLY71      -0.1940
     77  CA        15.2240   15.7780   -9.1520 C.3    71  GLY71       0.2014
     78  C         16.6900   16.0490   -9.4210 C.2    71  GLY71       0.2639
     79  O         17.3680   15.2520  -10.0710 O.2    71  GLY71      -0.2714
     80  N         17.1810   17.1760   -8.9140 N.am   72  GLY72      -0.1939
     81  CA        18.5730   17.5340   -9.1230 C.3    72  GLY72       0.2014
     82  C         19.1470   18.4460   -8.0550 C.2    72  GLY72       0.2639
     83  O         18.4800   18.7680   -7.0670 O.2    72  GLY72      -0.2714
     84  N         20.3870   18.8770   -8.2610 N.am   73  PHE73      -0.1960
     85  CA        21.0650   19.7330   -7.2960 C.3    73  PHE73       0.1756
     86  C         21.3400   21.1260   -7.8360 C.2    73  PHE73       0.2461
     87  O         22.0940   21.2960   -8.7940 O.2    73  PHE73      -0.2730
     88  CB        22.3830   19.0890   -6.8690 C.3    73  PHE73       0.0574
     89  CG        22.2400   17.6630   -6.4470 C.ar   73  PHE73      -0.0200
     90  CD1       22.6220   16.6320   -7.2970 C.ar   73  PHE73      -0.0042
     91  CD2       21.6890   17.3460   -5.2120 C.ar   73  PHE73      -0.0042
     92  CE1       22.4530   15.2990   -6.9250 C.ar   73  PHE73      -0.0003
     93  CE2       21.5170   16.0170   -4.8300 C.ar   73  PHE73      -0.0003
     94  CZ        21.9000   14.9940   -5.6900 C.ar   73  PHE73      -0.0000
     95  N         20.7220   22.1460   -7.2240 N.am   74  PRO74      -0.2727
     96  CA        20.9090   23.5330   -7.6500 C.3    74  PRO74       0.1402
     97  C         22.3660   23.9220   -7.9250 C.2    74  PRO74       0.2269
     98  O         22.6730   24.4290   -9.0030 O.2    74  PRO74      -0.2865
     99  CB        20.2980   24.3200   -6.4990 C.3    74  PRO74       0.0296
    100  CG        19.1210   23.4640   -6.1380 C.3    74  PRO74       0.0237
    101  CD        19.7220   22.0610   -6.1420 C.3    74  PRO74       0.0939
    102  N         -1.1150   22.9320  -11.6380 N.3   108  HIS108     -0.1241
    103  CA        -0.4380   22.5130  -10.4160 C.3   108  HIS108      0.1621
    104  C         -1.3060   22.7710   -9.1820 C.2   108  HIS108      0.2264
    105  O         -1.3340   23.8810   -8.6520 O.2   108  HIS108     -0.2867
    106  CB         0.8850   23.2720  -10.2690 C.3   108  HIS108      0.0745
    107  CG         1.8510   23.0420  -11.3910 C.ar  108  HIS108      0.0817
    108  ND1        2.8710   22.1170  -11.3190 N.ar  108  HIS108     -0.2268
    109  CD2        1.9610   23.6280  -12.6070 C.ar  108  HIS108      0.1154
    110  CE1        3.5690   22.1450  -12.4400 C.ar  108  HIS108      0.1986
    111  NE2        3.0380   23.0530  -13.2380 N.ar  108  HIS108     -0.2212
    112  N         -1.4840   18.3790  -13.8010 N.3   117  CYS117     -0.1235
    113  CA        -0.1410   17.8200  -13.7850 C.3   117  CYS117      0.1677
    114  C         -0.1840   16.4000  -13.2460 C.2   117  CYS117      0.2270
    115  O         -0.9540   16.1000  -12.3340 O.2   117  CYS117     -0.2867
    116  CB         0.7840   18.6620  -12.9090 C.3   117  CYS117      0.0956
    117  SG         0.9980   20.3900  -13.4420 S.3   117  CYS117     -0.0801
    118  N          2.6480   14.0320  -11.9440 N.3   119  GLY119     -0.1225
    119  CA         4.0180   13.7360  -11.5500 C.3   119  GLY119      0.1811
    120  C          4.8920   12.9350  -12.4980 C.2   119  GLY119      0.2280
    121  O          6.0090   13.3480  -12.8100 O.2   119  GLY119     -0.2866
    122  N         16.1980   26.5910   -2.0480 N.3   171  ALA171     -0.1245
    123  CA        15.3820   25.3960   -1.9210 C.3   171  ALA171      0.1562
    124  C         14.8180   25.2780   -0.5150 C.2   171  ALA171      0.2260
    125  O         15.4250   25.7440    0.4510 O.2   171  ALA171     -0.2867
    126  CB        16.2080   24.1750   -2.2530 C.3   171  ALA171      0.0290
    127  N          8.8830   16.8450   -0.0500 N.3   195  GLY195     -0.1210
    128  CA        10.2560   16.7650   -0.5140 C.3   195  GLY195      0.1956
    129  C         10.8500   18.1460   -0.7180 C.2   195  GLY195      0.2612
    130  O         10.2010   19.1560   -0.4310 O.2   195  GLY195     -0.2717
    131  N         12.0850   18.1890   -1.2080 N.am  196  GLY196     -0.1942
    132  CA        12.7530   19.4560   -1.4460 C.3   196  GLY196      0.2014
    133  C         12.3140   20.0810   -2.7550 C.2   196  GLY196      0.2639
    134  O         12.0760   19.3770   -3.7320 O.2   196  GLY196     -0.2714
    135  N         12.2100   21.4060   -2.7740 N.am  197  HIS197     -0.1959
    136  CA        11.7800   22.1250   -3.9670 C.3   197  HIS197      0.1787
    137  C         12.6660   23.3470   -4.1960 C.2   197  HIS197      0.2620
    138  O         12.8260   24.1770   -3.3050 O.2   197  HIS197     -0.2715
    139  CB        10.3140   22.5470   -3.8000 C.3   197  HIS197      0.0785
    140  CG         9.7340   23.2420   -4.9930 C.ar  197  HIS197      0.0821
    141  ND1        9.8330   22.7380   -6.2730 N.ar  197  HIS197     -0.2267
    142  CD2        9.0060   24.3800   -5.0930 C.ar  197  HIS197      0.1154
    143  CE1        9.1890   23.5350   -7.1080 C.ar  197  HIS197      0.1986
    144  NE2        8.6780   24.5370   -6.4170 N.ar  197  HIS197     -0.2212
    145  N         13.2460   23.4460   -5.3920 N.am  198  ALA198     -0.1977
    146  CA        14.1170   24.5680   -5.7320 C.3   198  ALA198      0.1597
    147  C         13.3040   25.6870   -6.3750 C.2   198  ALA198      0.2287
    148  O         12.4280   25.4350   -7.2070 O.2   198  ALA198     -0.2864
    149  CB        15.2210   24.1060   -6.6780 C.3   198  ALA198      0.0319
    150  N          5.3070   26.9010  -11.2800 N.3   219  TRP219     -0.1241
    151  CA         4.0580   26.1730  -11.4900 C.3   219  TRP219      0.1605
    152  C          3.0060   26.9940  -12.2360 C.2   219  TRP219      0.2264
    153  O          1.8070   26.8650  -11.9810 O.2   219  TRP219     -0.2867
    154  CB         3.4910   25.7060  -10.1440 C.3   219  TRP219      0.0550
    155  CG         4.3970   24.7590   -9.4000 C.ar  219  TRP219      0.0003
    156  CD1        5.5200   24.1460   -9.8790 C.ar  219  TRP219      0.0946
    157  CD2        4.2530   24.3240   -8.0400 C.ar  219  TRP219      0.0152
    158  NE1        6.0870   23.3600   -8.9020 N.ar  219  TRP219     -0.2442
    159  CE2        5.3290   23.4510   -7.7640 C.ar  219  TRP219      0.0810
    160  CE3        3.3170   24.5880   -7.0290 C.ar  219  TRP219      0.0012
    161  CZ2        5.4980   22.8390   -6.5160 C.ar  219  TRP219      0.0191
    162  CZ3        3.4840   23.9780   -5.7850 C.ar  219  TRP219      0.0001
    163  CH2        4.5690   23.1130   -5.5420 C.ar  219  TRP219      0.0015
    164  N         20.1860   26.5850    1.4540 N.3   243  GLU243     -0.1245
    165  CA        20.8380   26.1150    0.2380 C.3   243  GLU243      0.1567
    166  C         20.8100   27.1330   -0.8990 C.2   243  GLU243      0.2260
    167  O         20.4240   26.8050   -2.0170 O.2   243  GLU243     -0.2867
    168  CB        20.1520   24.8170   -0.2070 C.3   243  GLU243      0.0388
    169  CG        20.8950   24.0200   -1.2600 C.3   243  GLU243      0.1160
    170  CD        20.0040   23.6500   -2.4290 C.2   243  GLU243      0.3649
    171  OE1       19.7720   24.5240   -3.2910 O.co2 243  GLU243     -0.2457
    172  OE2       19.5230   22.4950   -2.4750 O.co2 243  GLU243     -0.2457
@<TRIPOS>BOND
     1    67    25    1
     2    67    66    1
     3    11    10    1
     4    11    12    1
     5     4     3    2
     6    14    12   am
     7    14    15    1
     8    10     3   am
     9    17    16    2
    10     3     2    1
    11    25    24    1
    12    18    19    1
    13    18    15    1
    14    24    21    1
    15    12    13    2
    16     2     1    1
    17     2     5    1
    18    16    15    1
    19    16    20   am
    20    66    63    1
    21    62    63    1
    22    20    21    1
    23    21    22    1
    24    49    47   ar
    25    49    48   ar
    26    63    64    1
    27     5     6    1
    28   112   113    1
    29   113   114    1
    30   113   116    1
    31    47    45   ar
    32   117   116    1
    33    48    46   ar
    34   114   115    2
    35   111   109   ar
    36   111   110   ar
    37    22    23    2
    38    22    26   am
    39    61    59   ar
    40    56    57    2
    41    56    55    1
    42     6     7    1
    43   121   120    2
    44    64    68   am
    45    64    65    2
    46    75    73   am
    47   109   107   ar
    48    45    44   ar
    49    45    43   ar
    50   120   119    1
    51   110   108   ar
    52    26    27    1
    53   152   153    2
    54   152   151    1
    55    68    69    1
    56    46    43   ar
    57    55    54    1
    58    55    58    1
    59    44    42   ar
    60   118   119    1
    61    53    52    2
    62    59    60   ar
    63    59    58    1
    64    73    74    2
    65    73    72    1
    66    43    41   ar
    67   102   103    1
    68    28    27    1
    69    28    29    2
    70   151   150    1
    71   151   154    1
    72     7     9   am
    73     7     8    2
    74   107   108   ar
    75   107   106    1
    76    54    52   am
    77    52    51    1
    78    50    51    1
    79    72    69    1
    80    38    39    2
    81    38    37    1
    82    30    31    1
    83    69    70    1
    84    42    41   ar
    85    41    40    1
    86   103   106    1
    87   103   104    1
    88    31    32    1
    89    31    34    1
    90    33    32    2
    91   154   155    1
    92    76    70   am
    93    76    77    1
    94    32    36   am
    95    79    78    2
    96   156   155   ar
    97   156   158   ar
    98    36    37    1
    99    70    71    2
   100    37    40    1
   101    78    77    1
   102    78    80   am
   103   155   157   ar
   104   104   105    2
   105    81    80    1
   106    81    82    1
   107    98    97    2
   108   158   159   ar
   109    34    35    1
   110    87    86    2
   111    84    82   am
   112    84    85    1
   113    82    83    2
   114   157   159   ar
   115   157   160   ar
   116    97    96    1
   117    86    85    1
   118    86    95   am
   119   159   161   ar
   120    96    95    1
   121    96    99    1
   122    90    92   ar
   123    90    89   ar
   124    85    88    1
   125    95   101    1
   126   148   147    2
   127   143   144   ar
   128   143   141   ar
   129   160   162   ar
   130    92    94   ar
   131    88    89    1
   132   149   146    1
   133   161   163   ar
   134    99   100    1
   135    89    91   ar
   136   144   142   ar
   137   147   146    1
   138   141   140   ar
   139   101   100    1
   140   162   163   ar
   141   146   145    1
   142    94    93   ar
   143   145   137   am
   144    91    93   ar
   145   142   140   ar
   146   140   139    1
   147   137   136    1
   148   137   138    2
   149   136   139    1
   150   136   135    1
   151   134   133    2
   152   171   170   ar
   153   135   133   am
   154   133   132    1
   155   172   170   ar
   156   170   169    1
   157   126   123    1
   158   122   123    1
   159   167   166    2
   160   123   124    1
   161   132   131    1
   162   169   168    1
   163   131   129   am
   164   166   165    1
   165   129   128    1
   166   129   130    2
   167   124   125    2
   168   128   127    1
   169   168   165    1
   170   165   164    1
