@<TRIPOS>MOLECULE
tmp/2dcdA00.pdb
 198 196 0 0 0
SMALL
GASTEIGER

@<TRIPOS>ATOM
      1  N          7.0750   24.0630  -15.2780 N.3    23  GLN23      -0.1231
      2  CA         7.9150   22.8770  -15.4080 C.3    23  GLN23       0.1698
      3  C          7.1790   21.6570  -15.9570 C.2    23  GLN23       0.2593
      4  O          7.8050   20.6590  -16.3010 O.2    23  GLN23      -0.2718
      5  CB         8.5230   22.5290  -14.0520 C.3    23  GLN23       0.0381
      6  CG         7.4870   22.0970  -13.0260 C.3    23  GLN23       0.0905
      7  CD         8.1020   21.8480  -11.6750 C.2    23  GLN23       0.2608
      8  OE1        8.3640   22.7860  -10.9170 O.2    23  GLN23      -0.2717
      9  NE2        8.3600   20.5820  -11.3680 N.am   23  GLN23      -0.0878
     10  N          5.8530   21.7370  -16.0300 N.am   24  GLY24      -0.1942
     11  CA         5.0680   20.6240  -16.5400 C.3    24  GLY24       0.2014
     12  C          5.0550   19.4390  -15.5920 C.2    24  GLY24       0.2640
     13  O          5.3650   19.5810  -14.4100 O.2    24  GLY24      -0.2714
     14  N          4.6910   18.2670  -16.1050 N.am   25  SER25      -0.1935
     15  CA         4.6520   17.0570  -15.2890 C.3    25  SER25       0.2055
     16  C          6.0600   16.4600  -15.2500 C.2    25  SER25       0.2643
     17  O          6.3450   15.4480  -15.8950 O.2    25  SER25      -0.2714
     18  CB         3.6540   16.0590  -15.8870 C.3    25  SER25       0.2130
     19  OG         2.3450   16.6130  -15.9190 O.3    25  SER25      -0.2179
     20  N          6.9330   17.0970  -14.4760 N.am   26  CYS26      -0.1953
     21  CA         8.3270   16.6800  -14.3680 C.3    26  CYS26       0.1843
     22  C          8.9610   17.3140  -13.1270 C.2    26  CYS26       0.2626
     23  O          8.7280   18.4920  -12.8340 O.2    26  CYS26      -0.2714
     24  CB         9.0570   17.1170  -15.6510 C.3    26  CYS26       0.0997
     25  SG        10.8750   17.0540  -15.6800 S.3    26  CYS26      -0.0797
     26  N          9.7500   16.5310  -12.3970 N.am   27  GLY27      -0.1954
     27  CA        10.3960   17.0410  -11.1990 C.3    27  GLY27       0.1869
     28  C         11.6550   17.8130  -11.5430 C.2    27  GLY27       0.2309
     29  O         12.7330   17.5470  -11.0020 O.2    27  GLY27      -0.2863
     30  N         12.2350   21.1380  -11.0510 N.3    29  CYS29      -0.1221
     31  CA        12.3260   22.4250  -10.3670 C.3    29  CYS29       0.1808
     32  C         13.7790   22.8550  -10.1950 C.2    29  CYS29       0.2601
     33  O         14.0990   24.0420  -10.2970 O.2    29  CYS29      -0.2717
     34  CB        11.6720   22.3270   -8.9790 C.3    29  CYS29       0.0970
     35  SG        12.4700   21.1300   -7.8810 S.3    29  CYS29      -0.0800
     36  N         14.6520   21.8880   -9.9260 N.am   30  TRP30      -0.1976
     37  CA        16.0660   22.1710   -9.7290 C.3    30  TRP30       0.1640
     38  C         16.6410   22.9040  -10.9460 C.2    30  TRP30       0.2290
     39  O         17.4610   23.8190  -10.8110 O.2    30  TRP30      -0.2864
     40  CB        16.8380   20.8650   -9.4890 C.3    30  TRP30       0.0576
     41  CG        16.7700   19.8890  -10.6340 C.ar   30  TRP30       0.0006
     42  CD1       15.8230   18.9240  -10.8390 C.ar   30  TRP30       0.0946
     43  CD2       17.6720   19.8080  -11.7450 C.ar   30  TRP30       0.0152
     44  NE1       16.0800   18.2460  -12.0080 N.ar   30  TRP30      -0.2442
     45  CE2       17.2080   18.7690  -12.5850 C.ar   30  TRP30       0.0810
     46  CE3       18.8270   20.5150  -12.1140 C.ar   30  TRP30       0.0012
     47  CZ2       17.8590   18.4190  -13.7760 C.ar   30  TRP30       0.0191
     48  CZ3       19.4730   20.1690  -13.2970 C.ar   30  TRP30       0.0001
     49  CH2       18.9850   19.1270  -14.1150 C.ar   30  TRP30       0.0015
     50  N         13.3880   13.3460  -12.1170 N.3    70  ASN70      -0.1225
     51  CA        13.2860   12.6950  -10.8170 C.3    70  ASN70       0.1785
     52  C         13.8780   13.5520   -9.7090 C.2    70  ASN70       0.2598
     53  O         13.8730   13.1580   -8.5380 O.2    70  ASN70      -0.2718
     54  CB        14.0000   11.3460  -10.8340 C.3    70  ASN70       0.1169
     55  CG        13.0470   10.1940  -11.0040 C.2    70  ASN70       0.2627
     56  OD1       12.3640   10.0840  -12.0180 O.2    70  ASN70      -0.2716
     57  ND2       12.9890    9.3230  -10.0030 N.am   70  ASN70      -0.0877
     58  N         14.3920   14.7200  -10.0780 N.am   71  GLY71      -0.1942
     59  CA        14.9860   15.5980   -9.0880 C.3    71  GLY71       0.2014
     60  C         16.4540   15.8520   -9.3590 C.2    71  GLY71       0.2639
     61  O         17.1240   15.0550  -10.0160 O.2    71  GLY71      -0.2714
     62  N         16.9640   16.9630   -8.8460 N.am   72  GLY72      -0.1939
     63  CA        18.3580   17.2880   -9.0720 C.3    72  GLY72       0.2014
     64  C         18.9650   18.1520   -7.9880 C.2    72  GLY72       0.2639
     65  O         18.3160   18.4590   -6.9930 O.2    72  GLY72      -0.2714
     66  N         20.2150   18.5500   -8.1950 N.am   73  PHE73      -0.1960
     67  CA        20.9460   19.3700   -7.2390 C.3    73  PHE73       0.1756
     68  C         21.1540   20.7640   -7.8070 C.2    73  PHE73       0.2461
     69  O         21.8730   20.9380   -8.7900 O.2    73  PHE73      -0.2730
     70  CB        22.3010   18.7300   -6.9580 C.3    73  PHE73       0.0574
     71  CG        22.2330   17.2460   -6.7680 C.ar   73  PHE73      -0.0200
     72  CD1       22.8860   16.3900   -7.6520 C.ar   73  PHE73      -0.0042
     73  CD2       21.5040   16.6990   -5.7150 C.ar   73  PHE73      -0.0042
     74  CE1       22.8150   15.0030   -7.4930 C.ar   73  PHE73      -0.0003
     75  CE2       21.4260   15.3120   -5.5440 C.ar   73  PHE73      -0.0003
     76  CZ        22.0830   14.4630   -6.4360 C.ar   73  PHE73      -0.0000
     77  N         20.5260   21.7790   -7.1950 N.am   74  PRO74      -0.2727
     78  CA        20.6650   23.1570   -7.6730 C.3    74  PRO74       0.1402
     79  C         22.1040   23.6100   -7.9590 C.2    74  PRO74       0.2269
     80  O         22.3780   24.1470   -9.0390 O.2    74  PRO74      -0.2865
     81  CB        19.9850   23.9640   -6.5730 C.3    74  PRO74       0.0296
     82  CG        18.8470   23.0480   -6.1840 C.3    74  PRO74       0.0237
     83  CD        19.5500   21.7010   -6.0900 C.3    74  PRO74       0.0939
     84  N         -1.1440   22.8850  -11.8670 N.3   108  HIS108     -0.1226
     85  CA        -0.4260   22.4350  -10.6800 C.3   108  HIS108      0.1752
     86  C         -1.2430   22.7010   -9.4210 C.2   108  HIS108      0.2596
     87  O         -1.2790   23.8270   -8.9170 O.2   108  HIS108     -0.2718
     88  CB         0.9200   23.1580  -10.5680 C.3   108  HIS108      0.0759
     89  CG         1.8440   22.9140  -11.7250 C.ar  108  HIS108      0.0818
     90  ND1        2.8730   21.9970  -11.6800 N.ar  108  HIS108     -0.2268
     91  CD2        1.9000   23.4780  -12.9550 C.ar  108  HIS108      0.1154
     92  CE1        3.5230   22.0070  -12.8300 C.ar  108  HIS108      0.1986
     93  NE2        2.9520   22.8980  -13.6210 N.ar  108  HIS108     -0.2212
     94  N         -1.9080   21.6600   -8.9270 N.am  109  HIS109     -0.1975
     95  CA        -2.7170   21.7490   -7.7170 C.3   109  HIS109      0.1656
     96  C         -3.7890   22.8320   -7.7390 C.2   109  HIS109      0.2291
     97  O         -4.0990   23.4340   -6.7040 O.2   109  HIS109     -0.2864
     98  CB        -1.8130   21.9480   -6.5050 C.3   109  HIS109      0.0771
     99  CG        -0.6750   20.9830   -6.4490 C.ar  109  HIS109      0.0820
    100  ND1       -0.6120   19.7040   -6.0110 N.ar  109  HIS109     -0.2267
    101  CD2        0.5760   21.2790   -6.9500 C.ar  109  HIS109      0.1154
    102  CE1        0.6630   19.2530   -6.2580 C.ar  109  HIS109      0.1986
    103  NE2        1.3580   20.2230   -6.8240 N.ar  109  HIS109     -0.2212
    104  N         -1.6640   18.2690  -14.0620 N.3   117  CYS117     -0.1235
    105  CA        -0.3230   17.7050  -14.1090 C.3   117  CYS117      0.1677
    106  C         -0.3960   16.2680  -13.6160 C.2   117  CYS117      0.2270
    107  O         -1.1370   15.9630  -12.6820 O.2   117  CYS117     -0.2867
    108  CB         0.6420   18.5030  -13.2290 C.3   117  CYS117      0.0956
    109  SG         0.9110   20.2410  -13.7240 S.3   117  CYS117     -0.0801
    110  N          2.4390   14.6080  -12.7620 N.3   119  GLY119     -0.1225
    111  CA         3.6370   14.3830  -11.9700 C.3   119  GLY119      0.1811
    112  C          4.6100   13.3550  -12.5180 C.2   119  GLY119      0.2280
    113  O          5.8250   13.4720  -12.3340 O.2   119  GLY119     -0.2866
    114  N         15.9450   26.4120   -2.0740 N.3   171  ALA171     -0.1231
    115  CA        15.1270   25.2190   -1.9610 C.3   171  ALA171      0.1694
    116  C         14.5260   25.1290   -0.5700 C.2   171  ALA171      0.2592
    117  O         15.1000   25.6370    0.4000 O.2   171  ALA171     -0.2718
    118  CB        15.9660   23.9980   -2.2410 C.3   171  ALA171      0.0304
    119  N         13.3630   24.4940   -0.4790 N.am  172  PHE172     -0.1976
    120  CA        12.6920   24.3190    0.8020 C.3   172  PHE172      0.1639
    121  C         11.8480   23.0440    0.8040 C.2   172  PHE172      0.2290
    122  O         11.5710   22.4640   -0.2500 O.2   172  PHE172     -0.2864
    123  CB        11.8120   25.5380    1.1230 C.3   172  PHE172      0.0560
    124  CG        10.6260   25.7070    0.2030 C.ar  172  PHE172     -0.0200
    125  CD1       10.8050   26.0060   -1.1450 C.ar  172  PHE172     -0.0042
    126  CD2        9.3250   25.5700    0.6920 C.ar  172  PHE172     -0.0042
    127  CE1        9.7020   26.1680   -2.0000 C.ar  172  PHE172     -0.0003
    128  CE2        8.2150   25.7280   -0.1510 C.ar  172  PHE172     -0.0003
    129  CZ         8.4060   26.0280   -1.5020 C.ar  172  PHE172     -0.0000
    130  N          8.5580   21.2200    0.8950 N.3   174  VAL174     -0.1245
    131  CA         7.1710   21.5410    0.5920 C.3   174  VAL174      0.1561
    132  C          6.2450   20.5810    1.3190 C.2   174  VAL174      0.2260
    133  O          6.4240   19.3630    1.2580 O.2   174  VAL174     -0.2867
    134  CB         6.8780   21.4430   -0.9230 C.3   174  VAL174      0.0252
    135  CG1        5.3770   21.5610   -1.1740 C.3   174  VAL174      0.0019
    136  CG2        7.6120   22.5440   -1.6640 C.3   174  VAL174      0.0019
    137  N          0.5750   23.7370   -1.0770 N.3   179  LEU179     -0.1245
    138  CA        -0.0600   23.5470   -2.3770 C.3   179  LEU179      0.1561
    139  C         -1.2580   24.4610   -2.6030 C.2   179  LEU179      0.2260
    140  O         -1.5660   24.8220   -3.7400 O.2   179  LEU179     -0.2867
    141  CB        -0.5170   22.0950   -2.5370 C.3   179  LEU179      0.0270
    142  CG         0.5100   20.9850   -2.3050 C.3   179  LEU179      0.0019
    143  CD1       -0.1450   19.6400   -2.6160 C.3   179  LEU179      0.0001
    144  CD2        1.7510   21.2090   -3.1810 C.3   179  LEU179      0.0001
    145  N          5.7180   16.6530    0.9360 N.3   194  MET194     -0.1230
    146  CA         5.5610   16.2850   -0.4670 C.3   194  MET194      0.1702
    147  C          6.9310   16.1080   -1.1290 C.2   194  MET194      0.2593
    148  O          7.0610   15.4040   -2.1280 O.2   194  MET194     -0.2718
    149  CB         4.7650   17.3650   -1.2000 C.3   194  MET194      0.0401
    150  CG         3.3990   17.6600   -0.5940 C.3   194  MET194      0.0596
    151  SD         2.1420   16.4140   -0.9780 S.3   194  MET194     -0.1393
    152  CE         2.4820   15.1790    0.2500 C.3   194  MET194      0.0692
    153  N          7.9490   16.7510   -0.5650 N.am  195  GLY195     -0.1942
    154  CA         9.2930   16.6440   -1.1050 C.3   195  GLY195      0.2014
    155  C         10.0300   17.9720   -1.1300 C.2   195  GLY195      0.2639
    156  O          9.4840   18.9980   -0.7150 O.2   195  GLY195     -0.2714
    157  N         11.2780   17.9470   -1.5990 N.am  196  GLY196     -0.1939
    158  CA        12.0660   19.1620   -1.6950 C.3   196  GLY196      0.2014
    159  C         11.6540   19.9050   -2.9560 C.2   196  GLY196      0.2639
    160  O         11.1940   19.2900   -3.9190 O.2   196  GLY196     -0.2714
    161  N         11.8120   21.2240   -2.9660 N.am  197  HIS197     -0.1959
    162  CA        11.4200   22.0140   -4.1290 C.3   197  HIS197      0.1787
    163  C         12.3550   23.2040   -4.3180 C.2   197  HIS197      0.2620
    164  O         12.5350   24.0210   -3.4170 O.2   197  HIS197     -0.2715
    165  CB         9.9660   22.4810   -3.9520 C.3   197  HIS197      0.0785
    166  CG         9.3770   23.1460   -5.1610 C.ar  197  HIS197      0.0821
    167  ND1        9.5310   22.6490   -6.4380 N.ar  197  HIS197     -0.2267
    168  CD2        8.5870   24.2420   -5.2770 C.ar  197  HIS197      0.1154
    169  CE1        8.8630   23.4100   -7.2870 C.ar  197  HIS197      0.1986
    170  NE2        8.2810   24.3830   -6.6080 N.ar  197  HIS197     -0.2212
    171  N         12.9600   23.2820   -5.4960 N.am  198  ALA198     -0.1977
    172  CA        13.8820   24.3590   -5.8230 C.3   198  ALA198      0.1597
    173  C         13.0910   25.4790   -6.4860 C.2   198  ALA198      0.2287
    174  O         12.2130   25.2220   -7.3140 O.2   198  ALA198     -0.2864
    175  CB        14.9620   23.8480   -6.7600 C.3   198  ALA198      0.0319
    176  N          5.0880   26.6840  -11.4470 N.3   219  TRP219     -0.1241
    177  CA         3.8360   25.9560  -11.6150 C.3   219  TRP219      0.1605
    178  C          2.8220   26.8070  -12.3750 C.2   219  TRP219      0.2264
    179  O          1.6130   26.7140  -12.1380 O.2   219  TRP219     -0.2867
    180  CB         3.2610   25.5750  -10.2450 C.3   219  TRP219      0.0550
    181  CG         4.1160   24.6080   -9.4670 C.ar  219  TRP219      0.0003
    182  CD1        5.2160   23.9260   -9.9230 C.ar  219  TRP219      0.0946
    183  CD2        3.9270   24.1980   -8.1060 C.ar  219  TRP219      0.0152
    184  NE1        5.7180   23.1200   -8.9290 N.ar  219  TRP219     -0.2442
    185  CE2        4.9480   23.2670   -7.8030 C.ar  219  TRP219      0.0810
    186  CE3        2.9920   24.5270   -7.1110 C.ar  219  TRP219      0.0012
    187  CZ2        5.0630   22.6600   -6.5440 C.ar  219  TRP219      0.0191
    188  CZ3        3.1060   23.9230   -5.8550 C.ar  219  TRP219      0.0001
    189  CH2        4.1380   22.9990   -5.5870 C.ar  219  TRP219      0.0015
    190  N         19.8690   26.5380    1.4610 N.3   243  GLU243     -0.1245
    191  CA        20.4710   26.0990    0.2070 C.3   243  GLU243      0.1567
    192  C         20.4420   27.1190   -0.9310 C.2   243  GLU243      0.2260
    193  O         19.9450   26.8350   -2.0160 O.2   243  GLU243     -0.2867
    194  CB        19.7890   24.8030   -0.2250 C.3   243  GLU243      0.0388
    195  CG        20.2860   24.2150   -1.5240 C.3   243  GLU243      0.1160
    196  CD        19.4540   23.0300   -1.9500 C.2   243  GLU243      0.3649
    197  OE1       19.6140   22.5610   -3.1000 O.co2 243  GLU243     -0.2457
    198  OE2       18.6370   22.5700   -1.1220 O.co2 243  GLU243     -0.2457
@<TRIPOS>BOND
     1    11    10    1
     2    11    12    1
     3     4     3    2
     4    14    12   am
     5    14    15    1
     6    10     3   am
     7     3     2    1
     8    19    18    1
     9    17    16    2
    10    18    15    1
    11    25    24    1
    12    24    21    1
    13    12    13    2
    14     2     1    1
    15     2     5    1
    16    15    16    1
    17    16    20   am
    18    20    21    1
    19    21    22    1
    20    49    47   ar
    21    49    48   ar
    22   105   104    1
    23   105   106    1
    24   105   108    1
    25     5     6    1
    26    47    45   ar
    27   109   108    1
    28    93    91   ar
    29    93    92   ar
    30   106   107    2
    31    48    46   ar
    32    22    23    2
    33    22    26   am
    34     6     7    1
    35    91    89   ar
    36    92    90   ar
    37   110   111    1
    38    45    44   ar
    39    45    43   ar
    40   112   113    2
    41   112   111    1
    42    26    27    1
    43   178   179    2
    44   178   177    1
    45    50    51    1
    46    46    43   ar
    47    56    55    2
    48    44    42   ar
    49    84    85    1
    50    43    41   ar
    51    89    90   ar
    52    89    88    1
    53     7     9   am
    54     7     8    2
    55   177   176    1
    56   177   180    1
    57    28    27    1
    58    28    29    2
    59    30    31    1
    60    55    54    1
    61    55    57   am
    62    38    39    2
    63    38    37    1
    64    42    41   ar
    65    54    51    1
    66    51    52    1
    67    85    88    1
    68    85    86    1
    69    41    40    1
    70    31    32    1
    71    31    34    1
    72    33    32    2
    73   180   181    1
    74    32    36   am
    75    58    52   am
    76    58    59    1
    77    61    60    2
    78    36    37    1
    79   182   181   ar
    80   182   184   ar
    81    37    40    1
    82    52    53    2
    83   181   183   ar
    84    86    94   am
    85    86    87    2
    86    60    59    1
    87    60    62   am
    88    63    62    1
    89    63    64    1
    90    80    79    2
    91    34    35    1
    92   184   185   ar
    93    94    95    1
    94    69    68    2
    95    66    64   am
    96    66    67    1
    97   183   185   ar
    98   183   186   ar
    99    64    65    2
   100    79    78    1
   101    68    67    1
   102    68    77   am
   103   185   187   ar
   104    96    95    1
   105    96    97    2
   106    95    98    1
   107    78    77    1
   108    78    81    1
   109    72    74   ar
   110    72    71   ar
   111    74    76   ar
   112   174   173    2
   113   169   170   ar
   114   169   167   ar
   115    67    70    1
   116    77    83    1
   117   186   188   ar
   118    70    71    1
   119   101   103   ar
   120   101    99   ar
   121   103   102   ar
   122    71    73   ar
   123   175   172    1
   124   170   168   ar
   125    81    82    1
   126   187   189   ar
   127    98    99    1
   128   173   172    1
   129    99   100   ar
   130   167   166   ar
   131    76    75   ar
   132   102   100   ar
   133    82    83    1
   134   188   189   ar
   135   172   171    1
   136    73    75   ar
   137   171   163   am
   138   168   166   ar
   139   166   165    1
   140   163   162    1
   141   163   164    2
   142   162   165    1
   143   162   161    1
   144   160   159    2
   145   140   139    2
   146   144   142    1
   147   197   196   ar
   148   161   159   am
   149   159   158    1
   150   143   142    1
   151   139   138    1
   152   141   138    1
   153   141   142    1
   154   138   137    1
   155   118   115    1
   156   148   147    2
   157   114   115    1
   158   193   192    2
   159   127   129   ar
   160   127   125   ar
   161   115   116    1
   162   196   195    1
   163   196   198   ar
   164   158   157    1
   165   136   134    1
   166   157   155   am
   167   195   194    1
   168   129   128   ar
   169   149   150    1
   170   149   146    1
   171   135   134    1
   172   125   124   ar
   173   155   154    1
   174   155   156    2
   175   147   153   am
   176   147   146    1
   177   154   153    1
   178   151   150    1
   179   151   152    1
   180   192   191    1
   181   134   131    1
   182   116   119   am
   183   116   117    2
   184   119   120    1
   185   146   145    1
   186   122   121    2
   187   194   191    1
   188   128   126   ar
   189   124   126   ar
   190   124   123    1
   191   191   190    1
   192   131   130    1
   193   131   132    1
   194   120   121    1
   195   120   123    1
   196   133   132    2
