@<TRIPOS>MOLECULE
tmp/2dcfA00.pdb
 183 176 0 0 0
SMALL
GASTEIGER

@<TRIPOS>ATOM
      1  N         54.0560   15.3100   14.7800 N.3   103  MET103     -0.1230
      2  CA        52.8610   15.9490   14.2540 C.3   103  MET103      0.1702
      3  C         53.1590   16.3260   12.8000 C.2   103  MET103      0.2592
      4  O         53.7650   15.5280   12.0900 O.2   103  MET103     -0.2718
      5  CB        52.4870   17.1620   15.1210 C.3   103  MET103      0.0401
      6  CG        51.9110   16.7620   16.4900 C.3   103  MET103      0.0596
      7  SD        50.3520   15.8470   16.3250 S.3   103  MET103     -0.1393
      8  CE        49.7630   15.8150   18.0270 C.3   103  MET103      0.0692
      9  N         52.7640   17.5120   12.3410 N.am  104  ALA104     -0.1980
     10  CA        52.8600   17.8020   10.9110 C.3   104  ALA104      0.1597
     11  C         54.2650   18.0780   10.3700 C.2   104  ALA104      0.2287
     12  O         54.4180   18.3300    9.1780 O.2   104  ALA104     -0.2864
     13  CB        51.9310   18.9470   10.5400 C.3   104  ALA104      0.0319
     14  N         54.6060   15.9620    7.5580 N.3   107  LYS107     -0.1245
     15  CA        54.2410   16.3540    6.1980 C.3   107  LYS107      0.1561
     16  C         55.4770   16.6700    5.3730 C.2   107  LYS107      0.2260
     17  O         55.5400   16.3490    4.1880 O.2   107  LYS107     -0.2867
     18  CB        53.3310   17.5860    6.2020 C.3   107  LYS107      0.0271
     19  CG        51.9760   17.3920    6.8610 C.3   107  LYS107      0.0035
     20  CD        51.0780   18.5980    6.5830 C.3   107  LYS107      0.0206
     21  CE        49.6310   18.3290    6.9710 C.3   107  LYS107      0.1093
     22  NZ        49.4590   18.2460    8.4480 N.3   107  LYS107     -0.1314
     23  N         36.7870   21.3530    5.0630 N.3   158  TYR158     -0.1241
     24  CA        37.4960   20.5890    6.0840 C.3   158  TYR158      0.1605
     25  C         37.9680   21.6030    7.1190 C.2   158  TYR158      0.2264
     26  O         38.8520   22.4160    6.8460 O.2   158  TYR158     -0.2867
     27  CB        38.6960   19.8640    5.4500 C.3   158  TYR158      0.0534
     28  CG        39.5350   18.9990    6.3790 C.ar  158  TYR158     -0.0201
     29  CD1       39.6830   17.6300    6.1430 C.ar  158  TYR158     -0.0009
     30  CD2       40.2400   19.5580    7.4450 C.ar  158  TYR158     -0.0009
     31  CE1       40.5200   16.8420    6.9410 C.ar  158  TYR158      0.0417
     32  CE2       41.0790   18.7790    8.2500 C.ar  158  TYR158      0.0417
     33  CZ        41.2150   17.4270    7.9890 C.ar  158  TYR158      0.1957
     34  OH        42.0750   16.6760    8.7650 O.3   158  TYR158     -0.2866
     35  N         40.0560   22.5430    9.9260 N.3   160  GLU160     -0.1245
     36  CA        41.2660   22.0910   10.6000 C.3   160  GLU160      0.1567
     37  C         41.3620   22.7500   11.9750 C.2   160  GLU160      0.2260
     38  O         42.3040   23.4900   12.2660 O.2   160  GLU160     -0.2867
     39  CB        42.4990   22.4250    9.7500 C.3   160  GLU160      0.0388
     40  CG        43.8140   21.8770   10.2990 C.3   160  GLU160      0.1160
     41  CD        44.3120   20.6380    9.5670 C.2   160  GLU160      0.3649
     42  OE1       45.2620   20.0070   10.0740 O.co2 160  GLU160     -0.2457
     43  OE2       43.7700   20.2950    8.4950 O.co2 160  GLU160     -0.2457
     44  N         41.7100   21.8170   15.8430 N.3   162  TYR162     -0.1241
     45  CA        42.2040   20.6570   16.5790 C.3   162  TYR162      0.1605
     46  C         41.5280   20.4280   17.9270 C.2   162  TYR162      0.2264
     47  O         41.8010   19.4320   18.5960 O.2   162  TYR162     -0.2867
     48  CB        43.7150   20.7780   16.7850 C.3   162  TYR162      0.0534
     49  CG        44.4850   20.9190   15.4940 C.ar  162  TYR162     -0.0201
     50  CD1       44.5390   19.8690   14.5780 C.ar  162  TYR162     -0.0009
     51  CD2       45.1400   22.1080   15.1770 C.ar  162  TYR162     -0.0009
     52  CE1       45.2250   19.9990   13.3760 C.ar  162  TYR162      0.0417
     53  CE2       45.8310   22.2490   13.9770 C.ar  162  TYR162      0.0417
     54  CZ        45.8670   21.1910   13.0820 C.ar  162  TYR162      0.1957
     55  OH        46.5420   21.3200   11.8920 O.3   162  TYR162     -0.2866
     56  N         38.8110   17.3920   11.2790 N.3   169  VAL169     -0.1245
     57  CA        40.0420   16.9230   11.9110 C.3   169  VAL169      0.1561
     58  C         39.7610   15.6670   12.7200 C.2   169  VAL169      0.2260
     59  O         40.4810   14.6730   12.6160 O.2   169  VAL169     -0.2867
     60  CB        40.6340   17.9800   12.8750 C.3   169  VAL169      0.0252
     61  CG1       41.7990   17.3840   13.6570 C.3   169  VAL169      0.0019
     62  CG2       41.0960   19.1880   12.0950 C.3   169  VAL169      0.0019
     63  N         38.8320   12.6900   10.5750 N.3   172  HIS172     -0.1226
     64  CA        40.0830   12.2060   10.0010 C.3   172  HIS172      0.1752
     65  C         40.7960   11.3160   11.0270 C.2   172  HIS172      0.2596
     66  O         41.2150   10.1960   10.7140 O.2   172  HIS172     -0.2718
     67  CB        40.9510   13.4200    9.6340 C.3   172  HIS172      0.0759
     68  CG        42.1280   13.1040    8.7630 C.ar  172  HIS172      0.0818
     69  ND1       42.8860   14.0900    8.1680 N.ar  172  HIS172     -0.2268
     70  CD2       42.6870   11.9270    8.3950 C.ar  172  HIS172      0.1154
     71  CE1       43.8620   13.5350    7.4730 C.ar  172  HIS172      0.1986
     72  NE2       43.7640   12.2230    7.5930 N.ar  172  HIS172     -0.2212
     73  N         40.9150   11.8160   12.2550 N.am  173  ASP173     -0.1974
     74  CA        41.5390   11.0600   13.3410 C.3   173  ASP173      0.1709
     75  C         40.8270    9.7350   13.6090 C.2   173  ASP173      0.2293
     76  O         41.4740    8.7040   13.7920 O.2   173  ASP173     -0.2864
     77  CB        41.5500   11.8850   14.6330 C.3   173  ASP173      0.1436
     78  CG        42.5920   12.9850   14.6230 C.2   173  ASP173      0.3671
     79  OD1       43.3210   13.1100   13.6170 O.co2 173  ASP173     -0.2456
     80  OD2       42.6810   13.7230   15.6280 O.co2 173  ASP173     -0.2456
     81  N         43.4660    7.4560   15.4230 N.3   178  TRP178     -0.1241
     82  CA        43.9790    8.3840   16.4300 C.3   178  TRP178      0.1605
     83  C         42.9400    8.6950   17.5050 C.2   178  TRP178      0.2264
     84  O         43.2810    9.1630   18.5900 O.2   178  TRP178     -0.2867
     85  CB        44.4340    9.6920   15.7670 C.3   178  TRP178      0.0550
     86  CG        45.8890    9.7150   15.3930 C.ar  178  TRP178      0.0003
     87  CD1       46.6490    8.6600   14.9690 C.ar  178  TRP178      0.0946
     88  CD2       46.7650   10.8480   15.4380 C.ar  178  TRP178      0.0152
     89  NE1       47.9450    9.0670   14.7510 N.ar  178  TRP178     -0.2442
     90  CE2       48.0450   10.4040   15.0310 C.ar  178  TRP178      0.0810
     91  CE3       46.5930   12.1960   15.7810 C.ar  178  TRP178      0.0012
     92  CZ2       49.1490   11.2600   14.9610 C.ar  178  TRP178      0.0191
     93  CZ3       47.6940   13.0500   15.7100 C.ar  178  TRP178      0.0001
     94  CH2       48.9540   12.5760   15.3030 C.ar  178  TRP178      0.0015
     95  N         45.5030   25.2790    4.6550 N.3   207  TYR207     -0.1241
     96  CA        46.1780   24.1570    5.2870 C.3   207  TYR207      0.1605
     97  C         45.1560   23.0610    5.5540 C.2   207  TYR207      0.2264
     98  O         44.1510   23.2890    6.2250 O.2   207  TYR207     -0.2867
     99  CB        46.8290   24.5910    6.5980 C.3   207  TYR207      0.0534
    100  CG        47.7310   23.5340    7.1910 C.ar  207  TYR207     -0.0201
    101  CD1       49.0740   23.4590    6.8270 C.ar  207  TYR207     -0.0009
    102  CD2       47.2480   22.6190    8.1260 C.ar  207  TYR207     -0.0009
    103  CE1       49.9170   22.5040    7.3820 C.ar  207  TYR207      0.0417
    104  CE2       48.0870   21.6540    8.6880 C.ar  207  TYR207      0.0417
    105  CZ        49.4180   21.6110    8.3110 C.ar  207  TYR207      0.1957
    106  OH        50.2710   20.6980    8.8790 O.3   207  TYR207     -0.2866
    107  N         45.2290   18.8010    6.4570 N.3   209  SER209     -0.1217
    108  CA        46.0050   17.5900    6.6860 C.3   209  SER209      0.1889
    109  C         45.6420   16.4470    5.7450 C.2   209  SER209      0.2288
    110  O         46.4570   15.5600    5.5080 O.2   209  SER209     -0.2866
    111  CB        45.8530   17.1270    8.1360 C.3   209  SER209      0.2089
    112  OG        46.5430   17.9960    9.0190 O.3   209  SER209     -0.2183
    113  N         49.9400    7.2390    8.7880 N.3   256  PHE256     -0.1241
    114  CA        49.3020    8.5400    8.9910 C.3   256  PHE256      0.1605
    115  C         50.2950    9.6260    8.5590 C.2   256  PHE256      0.2264
    116  O         50.9530   10.2610    9.3880 O.2   256  PHE256     -0.2867
    117  CB        48.9410    8.6850   10.4760 C.3   256  PHE256      0.0534
    118  CG        47.9030    9.7400   10.7760 C.ar  256  PHE256     -0.0203
    119  CD1       46.6150    9.6520   10.2560 C.ar  256  PHE256     -0.0042
    120  CD2       48.1940   10.7760   11.6640 C.ar  256  PHE256     -0.0042
    121  CE1       45.6270   10.5790   10.6250 C.ar  256  PHE256     -0.0003
    122  CE2       47.2150   11.7010   12.0360 C.ar  256  PHE256     -0.0003
    123  CZ        45.9340   11.5990   11.5180 C.ar  256  PHE256     -0.0000
    124  N         50.2690   12.5960    7.4320 N.3   258  ASN258     -0.1225
    125  CA        50.1140   14.0100    7.7530 C.3   258  ASN258      0.1785
    126  C         50.6210   14.3730    9.1420 C.2   258  ASN258      0.2597
    127  O         50.8900   15.5430    9.4110 O.2   258  ASN258     -0.2718
    128  CB        48.6440   14.4140    7.6460 C.3   258  ASN258      0.1169
    129  CG        47.8140   13.8770    8.7920 C.2   258  ASN258      0.2627
    130  OD1       47.7110   14.5060    9.8440 O.2   258  ASN258     -0.2716
    131  ND2       47.2240   12.7030    8.5970 N.am  258  ASN258     -0.0877
    132  N         50.7440   13.3890   10.0320 N.am  259  GLY259     -0.1957
    133  CA        51.0300   13.7190   11.4180 C.3   259  GLY259      0.1869
    134  C         51.6260   12.6560   12.3260 C.2   259  GLY259      0.2309
    135  O         51.9330   12.9600   13.4780 O.2   259  GLY259     -0.2863
    136  N         56.8360   25.2170    5.3870 N.3   323  TRP323     -0.1241
    137  CA        56.5040   26.6150    5.6380 C.3   323  TRP323      0.1605
    138  C         57.7270   27.4750    5.3660 C.2   323  TRP323      0.2264
    139  O         58.8260   27.1700    5.8220 O.2   323  TRP323     -0.2867
    140  CB        56.0720   26.8120    7.0910 C.3   323  TRP323      0.0550
    141  CG        54.8010   26.1150    7.4580 C.ar  323  TRP323      0.0003
    142  CD1       54.6630   24.8130    7.8570 C.ar  323  TRP323      0.0946
    143  CD2       53.4900   26.6940    7.5120 C.ar  323  TRP323      0.0152
    144  NE1       53.3490   24.5510    8.1600 N.ar  323  TRP323     -0.2442
    145  CE2       52.6070   25.6860    7.9570 C.ar  323  TRP323      0.0810
    146  CE3       52.9760   27.9700    7.2290 C.ar  323  TRP323      0.0012
    147  CZ2       51.2380   25.9100    8.1290 C.ar  323  TRP323      0.0191
    148  CZ3       51.6140   28.1940    7.4000 C.ar  323  TRP323      0.0001
    149  CH2       50.7590   27.1660    7.8460 C.ar  323  TRP323      0.0015
    150  N         56.6300   22.2860   10.5080 N.3   335  ILE335     -0.1245
    151  CA        55.9460   22.6990   11.7280 C.3   335  ILE335      0.1561
    152  C         54.8850   21.6720   12.0930 C.2   335  ILE335      0.2260
    153  O         54.1500   21.1930   11.2300 O.2   335  ILE335     -0.2867
    154  CB        55.2660   24.0800   11.5600 C.3   335  ILE335      0.0252
    155  CG1       56.3000   25.1270   11.1340 C.3   335  ILE335      0.0019
    156  CG2       54.6140   24.5000   12.8780 C.3   335  ILE335      0.0019
    157  CD1       55.7170   26.5150   10.8880 C.3   335  ILE335      0.0001
    158  N         51.8700   20.7990   15.3650 N.3   337  ILE337     -0.1245
    159  CA        51.1810   21.3810   16.5140 C.3   337  ILE337      0.1561
    160  C         51.8330   20.9970   17.8370 C.2   337  ILE337      0.2260
    161  O         52.5360   19.9830   17.9380 O.2   337  ILE337     -0.2867
    162  CB        49.6780   20.9790   16.5570 C.3   337  ILE337      0.0252
    163  CG1       49.5210   19.4600   16.4340 C.3   337  ILE337      0.0019
    164  CG2       48.9130   21.6990   15.4580 C.3   337  ILE337      0.0019
    165  CD1       48.0860   18.9970   16.5910 C.3   337  ILE337      0.0001
    166  N         47.8470   25.1080   19.0690 N.3   362  ASP362     -0.1239
    167  CA        48.1390   26.2070   18.1580 C.3   362  ASP362      0.1674
    168  C         47.5340   27.5260   18.6400 C.2   362  ASP362      0.2266
    169  O         46.3490   27.7880   18.4290 O.2   362  ASP362     -0.2867
    170  CB        47.5990   25.8570   16.7680 C.3   362  ASP362      0.1410
    171  CG        47.8170   26.9630   15.7560 C.2   362  ASP362      0.3668
    172  OD1       48.6660   27.8450   16.0020 O.co2 362  ASP362     -0.2456
    173  OD2       47.1330   26.9410   14.7120 O.co2 362  ASP362     -0.2456
    174  N         53.2840   30.3520   19.6350 N.3   367  HIS367     -0.1241
    175  CA        54.0740   30.6090   18.4360 C.3   367  HIS367      0.1621
    176  C         55.0060   31.8070   18.5970 C.2   367  HIS367      0.2264
    177  O         56.1390   31.7790   18.1270 O.2   367  HIS367     -0.2867
    178  CB        53.1590   30.8160   17.2280 C.3   367  HIS367      0.0745
    179  CG        52.6530   29.5380   16.6340 C.ar  367  HIS367      0.0817
    180  ND1       53.4620   28.6820   15.9180 N.ar  367  HIS367     -0.2268
    181  CD2       51.4280   28.9640   16.6630 C.ar  367  HIS367      0.1154
    182  CE1       52.7550   27.6340   15.5320 C.ar  367  HIS367      0.1986
    183  NE2       51.5180   27.7800   15.9700 N.ar  367  HIS367     -0.2212
@<TRIPOS>BOND
     1    17    16    2
     2    95    96    1
     3    23    24    1
     4    96    97    1
     5    96    99    1
     6   138   137    1
     7   138   139    2
     8    16    15    1
     9   136   137    1
    10    27    24    1
    11    27    28    1
    12   110   109    2
    13    97    98    2
    14   137   140    1
    15   109   108    1
    16    24    25    1
    17    29    28   ar
    18    29    31   ar
    19    15    18    1
    20    15    14    1
    21    18    19    1
    22    28    30   ar
    23   107   108    1
    24    20    19    1
    25    20    21    1
    26    99   100    1
    27   108   111    1
    28   101   100   ar
    29   101   103   ar
    30    26    25    2
    31    31    33   ar
    32    21    22    1
    33   140   141    1
    34   100   102   ar
    35   146   148   ar
    36   146   143   ar
    37   103   105   ar
    38   148   149   ar
    39   124   125    1
    40    30    32   ar
    41   141   143   ar
    42   141   142   ar
    43    71    72   ar
    44    71    69   ar
    45   143   145   ar
    46    72    70   ar
    47   128   125    1
    48   128   129    1
    49   125   126    1
    50   149   147   ar
    51   142   144   ar
    52   145   147   ar
    53   145   144   ar
    54    33    32   ar
    55    33    34    1
    56   102   104   ar
    57   111   112    1
    58    69    68   ar
    59   105   104   ar
    60   105   106    1
    61    70    68   ar
    62    43    41   ar
    63   115   114    1
    64   115   116    2
    65   131   129   am
    66    68    67    1
    67   113   114    1
    68   129   130    2
    69   114   117    1
    70   126   127    2
    71   126   132   am
    72    12    11    2
    73    41    42   ar
    74    41    40    1
    75    67    64    1
    76    39    40    1
    77    39    36    1
    78    35    36    1
    79    64    63    1
    80    64    65    1
    81   132   133    1
    82   119   121   ar
    83   119   118   ar
    84    11    10    1
    85   117   118    1
    86   150   151    1
    87    13    10    1
    88    36    37    1
    89   121   123   ar
    90    66    65    2
    91   118   120   ar
    92   157   155    1
    93    10     9    1
    94    65    73   am
    95   155   154    1
    96   153   152    2
    97    56    57    1
    98   133   134    1
    99   123   122   ar
   100   154   151    1
   101   154   156    1
   102   120   122   ar
   103   151   152    1
   104    55    54    1
   105    57    58    1
   106    57    60    1
   107    37    38    2
   108     4     3    2
   109    62    60    1
   110    73    74    1
   111   134   135    2
   112     9     3   am
   113    59    58    2
   114     3     2    1
   115    60    61    1
   116    54    52   ar
   117    54    53   ar
   118    74    75    1
   119    74    77    1
   120    52    50   ar
   121    75    76    2
   122    79    78   ar
   123    53    51   ar
   124     2     1    1
   125     2     5    1
   126    50    49   ar
   127    78    77    1
   128    78    80   ar
   129   173   171   ar
   130    89    87   ar
   131    89    90   ar
   132    92    90   ar
   133    92    94   ar
   134    87    86   ar
   135    90    88   ar
   136     5     6    1
   137    51    49   ar
   138    94    93   ar
   139   158   159    1
   140    86    88   ar
   141    86    85    1
   142    81    82    1
   143    88    91   ar
   144   164   162    1
   145    49    48    1
   146   182   180   ar
   147   182   183   ar
   148    93    91   ar
   149   171   172   ar
   150   171   170    1
   151    85    82    1
   152    44    45    1
   153   180   179   ar
   154   183   181   ar
   155     7     6    1
   156     7     8    1
   157    82    83    1
   158   163   162    1
   159   163   165    1
   160   159   162    1
   161   159   160    1
   162    45    48    1
   163    45    46    1
   164   179   181   ar
   165   179   178    1
   166   170   167    1
   167   178   175    1
   168    83    84    2
   169   160   161    2
   170    46    47    2
   171   177   176    2
   172   167   168    1
   173   167   166    1
   174   169   168    2
   175   175   176    1
   176   175   174    1
