@<TRIPOS>MOLECULE
tmp/2dcjA00.pdb
 118 115 0 0 0
SMALL
GASTEIGER

@<TRIPOS>ATOM
      1  N         44.7340   72.0750  150.6520 N.3    16  GLU16      -0.1245
      2  CA        45.0930   71.2610  151.8140 C.3    16  GLU16       0.1567
      3  C         46.3120   71.8750  152.5740 C.2    16  GLU16       0.2260
      4  O         47.3130   72.2880  151.9790 O.2    16  GLU16      -0.2867
      5  CB        45.3360   69.8400  151.3720 C.3    16  GLU16       0.0388
      6  CG        45.4890   68.9110  152.5560 C.3    16  GLU16       0.1160
      7  CD        45.4380   67.4290  152.2420 C.2    16  GLU16       0.3649
      8  OE1       45.8110   66.6360  153.1550 O.co2  16  GLU16      -0.2457
      9  OE2       45.0230   67.0120  151.1340 O.co2  16  GLU16      -0.2457
     10  N         48.5210   70.2820  155.6110 N.3    18  TRP18      -0.1241
     11  CA        48.8810   69.0960  156.3830 C.3    18  TRP18       0.1605
     12  C         50.1960   69.3190  157.0560 C.2    18  TRP18       0.2264
     13  O         51.2020   69.6410  156.4020 O.2    18  TRP18      -0.2867
     14  CB        49.0510   67.8870  155.4800 C.3    18  TRP18       0.0550
     15  CG        49.7460   66.8290  156.1600 C.ar   18  TRP18       0.0003
     16  CD1       51.1530   66.5570  156.1620 C.ar   18  TRP18       0.0946
     17  CD2       49.1730   65.8930  156.9950 C.ar   18  TRP18       0.0152
     18  NE1       51.4050   65.4880  156.9730 N.ar   18  TRP18      -0.2442
     19  CE2       50.2140   65.0850  157.5180 C.ar   18  TRP18       0.0810
     20  CE3       47.9000   65.6910  157.4190 C.ar   18  TRP18       0.0012
     21  CZ2       49.9890   64.0740  158.3510 C.ar   18  TRP18       0.0191
     22  CZ3       47.6690   64.7200  158.3150 C.ar   18  TRP18       0.0001
     23  CH2       48.6960   63.8810  158.7480 C.ar   18  TRP18       0.0015
     24  N         57.2820   67.9820  159.4390 N.3    44  ASN44      -0.1240
     25  CA        56.9050   67.9850  158.0120 C.3    44  ASN44       0.1653
     26  C         55.5900   68.7630  157.8110 C.2    44  ASN44       0.2266
     27  O         54.5930   68.6190  158.5800 O.2    44  ASN44      -0.2867
     28  CB        56.8830   66.5530  157.4940 C.3    44  ASN44       0.1155
     29  CG        56.7850   66.4580  155.9940 C.2    44  ASN44       0.2627
     30  OD1       56.1400   65.5480  155.5600 O.2    44  ASN44      -0.2716
     31  ND2       57.4630   67.3640  155.1820 N.am   44  ASN44      -0.0877
     32  N         53.0300   70.5390  154.4920 N.3    46  LEU46      -0.1245
     33  CA        52.6820   70.7050  153.0720 C.3    46  LEU46       0.1561
     34  C         51.4930   71.6490  152.9430 C.2    46  LEU46       0.2260
     35  O         50.5530   71.5750  153.7050 O.2    46  LEU46      -0.2867
     36  CB        52.3560   69.4080  152.3630 C.3    46  LEU46       0.0270
     37  CG        53.4840   68.4540  152.0180 C.3    46  LEU46       0.0019
     38  CD1       53.9290   67.6800  153.2050 C.3    46  LEU46       0.0001
     39  CD2       52.9620   67.5210  150.9890 C.3    46  LEU46       0.0001
     40  N         49.1380   73.2830  149.7900 N.3    48  ARG48      -0.1245
     41  CA        48.8650   73.0710  148.3660 C.3    48  ARG48       0.1563
     42  C         47.4590   73.4970  147.9090 C.2    48  ARG48       0.2260
     43  O         46.4840   73.5070  148.7160 O.2    48  ARG48      -0.2867
     44  CB        49.1490   71.6160  148.0110 C.3    48  ARG48       0.0307
     45  CG        48.1680   70.6590  148.5770 C.3    48  ARG48       0.0489
     46  CD        48.7820   69.2910  148.7250 C.3    48  ARG48       0.2205
     47  NE        47.9870   68.0800  148.8350 N.pl3  48  ARG48      -0.0865
     48  CZ        48.1680   67.1450  149.7660 C.cat  48  ARG48       0.5346
     49  NH1       48.9500   67.3340  150.8560 N.pl3  48  ARG48       0.1354
     50  NH2       47.5180   66.0280  149.6480 N.pl3  48  ARG48       0.1354
     51  N         52.9150   68.2600  143.2280 N.3    84  TYR84      -0.1241
     52  CA        52.7580   67.1140  144.1200 C.3    84  TYR84       0.1605
     53  C         51.4230   66.4630  143.8960 C.2    84  TYR84       0.2264
     54  O         50.4500   67.1160  143.5120 O.2    84  TYR84      -0.2867
     55  CB        52.9080   67.5680  145.5510 C.3    84  TYR84       0.0534
     56  CG        52.6330   66.5460  146.6450 C.ar   84  TYR84      -0.0201
     57  CD1       53.6320   65.7160  147.1210 C.ar   84  TYR84      -0.0009
     58  CD2       51.3750   66.4960  147.2820 C.ar   84  TYR84      -0.0009
     59  CE1       53.4050   64.8110  148.1380 C.ar   84  TYR84       0.0417
     60  CE2       51.1320   65.5920  148.2780 C.ar   84  TYR84       0.0417
     61  CZ        52.1450   64.7660  148.7250 C.ar   84  TYR84       0.1957
     62  OH        51.8730   63.8960  149.7190 O.3    84  TYR84      -0.2866
     63  N         49.2160   62.2600  144.0990 N.3    86  TRP86      -0.1241
     64  CA        49.1090   60.8480  144.3540 C.3    86  TRP86       0.1605
     65  C         48.3750   60.0840  143.2480 C.2    86  TRP86       0.2264
     66  O         47.4700   60.6210  142.6020 O.2    86  TRP86      -0.2867
     67  CB        48.3130   60.6360  145.6540 C.3    86  TRP86       0.0550
     68  CG        48.9070   61.0800  146.9120 C.ar   86  TRP86       0.0003
     69  CD1       48.7660   62.2950  147.5180 C.ar   86  TRP86       0.0946
     70  CD2       49.7290   60.2890  147.7940 C.ar   86  TRP86       0.0152
     71  NE1       49.4790   62.3090  148.6980 N.ar   86  TRP86      -0.2442
     72  CE2       50.0450   61.0860  148.9010 C.ar   86  TRP86       0.0810
     73  CE3       50.1780   58.9830  147.7720 C.ar   86  TRP86       0.0012
     74  CZ2       50.8300   60.6330  149.9620 C.ar   86  TRP86       0.0191
     75  CZ3       50.9550   58.5180  148.8580 C.ar   86  TRP86       0.0001
     76  CH2       51.2520   59.3390  149.9230 C.ar   86  TRP86       0.0015
     77  N         53.2100   58.4730  145.6190 N.3    93  GLU93      -0.1245
     78  CA        53.3170   59.8900  145.9190 C.3    93  GLU93       0.1567
     79  C         54.3520   60.4560  144.9110 C.2    93  GLU93       0.2260
     80  O         55.4460   59.8860  144.8120 O.2    93  GLU93      -0.2867
     81  CB        53.7510   60.0620  147.3560 C.3    93  GLU93       0.0388
     82  CG        53.8840   61.5100  147.8350 C.3    93  GLU93       0.1160
     83  CD        54.4000   61.5750  149.2840 C.2    93  GLU93       0.3649
     84  OE1       55.4470   60.9200  149.4680 O.co2  93  GLU93      -0.2457
     85  OE2       53.7760   62.2330  150.1970 O.co2  93  GLU93      -0.2457
     86  N         53.0090   58.2950  156.5450 N.3   132  PRO132     -0.2102
     87  CA        51.6470   58.7960  156.3140 C.3   132  PRO132      0.1504
     88  C         51.3230   58.8730  154.8280 C.2   132  PRO132      0.2576
     89  O         52.1840   59.2300  154.0090 O.2   132  PRO132     -0.2718
     90  CB        51.6550   60.1960  156.8920 C.3   132  PRO132      0.0282
     91  CG        53.1090   60.5720  157.0480 C.3   132  PRO132      0.0208
     92  CD        53.8750   59.2790  157.2400 C.3   132  PRO132      0.0893
     93  N         50.0930   58.4670  154.4890 N.am  133  SER133     -0.1938
     94  CA        49.6220   58.5780  153.1160 C.3   133  SER133      0.2055
     95  C         48.1290   58.7780  153.1090 C.2   133  SER133      0.2642
     96  O         47.4570   58.6140  154.1320 O.2   133  SER133     -0.2714
     97  CB        49.9100   57.3150  152.3600 C.3   133  SER133      0.2130
     98  OG        49.0180   56.2190  152.6670 O.3   133  SER133     -0.2179
     99  N         47.5990   58.9690  151.9020 N.am  134  ILE134     -0.1977
    100  CA        46.1440   58.9990  151.7100 C.3   134  ILE134      0.1596
    101  C         45.4870   57.6980  152.0500 C.2   134  ILE134      0.2287
    102  O         44.3040   57.7200  152.2850 O.2   134  ILE134     -0.2864
    103  CB        45.7570   59.4140  150.3190 C.3   134  ILE134      0.0276
    104  CG1       46.3320   58.4120  149.2940 C.3   134  ILE134      0.0022
    105  CG2       46.2920   60.8550  150.0060 C.3   134  ILE134      0.0022
    106  CD1       45.9380   58.7720  147.8970 C.3   134  ILE134      0.0001
    107  N         44.6800   60.6450  142.1240 N.3   176  TYR176     -0.1241
    108  CA        43.9850   61.1690  143.2820 C.3   176  TYR176      0.1605
    109  C         44.1580   62.6620  143.3480 C.2   176  TYR176      0.2264
    110  O         43.3070   63.3120  143.8310 O.2   176  TYR176     -0.2867
    111  CB        44.4520   60.4150  144.5900 C.3   176  TYR176      0.0534
    112  CG        44.0390   61.0510  145.8830 C.ar  176  TYR176     -0.0201
    113  CD1       44.7900   62.0670  146.4480 C.ar  176  TYR176     -0.0009
    114  CD2       42.8750   60.6770  146.5360 C.ar  176  TYR176     -0.0009
    115  CE1       44.3810   62.7130  147.6250 C.ar  176  TYR176      0.0417
    116  CE2       42.4670   61.3410  147.7200 C.ar  176  TYR176      0.0417
    117  CZ        43.2270   62.3160  148.2570 C.ar  176  TYR176      0.1957
    118  OH        42.8460   62.9690  149.4050 O.3   176  TYR176     -0.2866
@<TRIPOS>BOND
     1   107   108    1
     2    66    65    2
     3    51    52    1
     4    65    64    1
     5   108   109    1
     6   108   111    1
     7   109   110    2
     8    54    53    2
     9    53    52    1
    10    63    64    1
    11    52    55    1
    12    64    67    1
    13   111   112    1
    14    80    79    2
    15    79    78    1
    16    55    56    1
    17    77    78    1
    18    67    68    1
    19   112   113   ar
    20   112   114   ar
    21    78    81    1
    22   113   115   ar
    23   114   116   ar
    24    56    57   ar
    25    56    58   ar
    26    68    69   ar
    27    68    70   ar
    28    57    59   ar
    29    58    60   ar
    30    81    82    1
    31    69    71   ar
    32   115   117   ar
    33   116   117   ar
    34    73    70   ar
    35    73    75   ar
    36    70    72   ar
    37    82    83    1
    38   106   104    1
    39    42    41    1
    40    42    43    2
    41    44    41    1
    42    44    45    1
    43    59    61   ar
    44   117   118    1
    45    60    61   ar
    46    41    40    1
    47    45    46    1
    48    71    72   ar
    49    61    62    1
    50    46    47    1
    51    47    48    2
    52    75    76   ar
    53    72    74   ar
    54    83    84   ar
    55    83    85   ar
    56   104   103    1
    57    50    48    1
    58    48    49    1
    59    76    74   ar
    60   105   103    1
    61   103   100    1
    62     1     2    1
    63    39    37    1
    64     9     7   ar
    65     5     2    1
    66     5     6    1
    67   100    99    1
    68   100   101    1
    69     2     3    1
    70    99    95   am
    71     4     3    2
    72    37    36    1
    73    37    38    1
    74   101   102    2
    75     7     6    1
    76     7     8   ar
    77    97    98    1
    78    97    94    1
    79    36    33    1
    80    34    33    1
    81    34    35    2
    82    33    32    1
    83    95    94    1
    84    95    96    2
    85    94    93    1
    86    89    88    2
    87    93    88   am
    88    88    87    1
    89    31    29   am
    90    14    15    1
    91    14    11    1
    92    30    29    2
    93    10    11    1
    94    29    28    1
    95    15    16   ar
    96    15    17   ar
    97    16    18   ar
    98    87    86    1
    99    87    90    1
   100    11    12    1
   101    13    12    2
   102    86    92    1
   103    90    91    1
   104    18    19   ar
   105    17    20   ar
   106    17    19   ar
   107    91    92    1
   108    20    22   ar
   109    28    25    1
   110    19    21   ar
   111    26    25    1
   112    26    27    2
   113    25    24    1
   114    22    23   ar
   115    21    23   ar
