@<TRIPOS>MOLECULE
tmp/2dclA01.pdb
 102 101 0 0 0
SMALL
GASTEIGER

@<TRIPOS>ATOM
      1  N          1.3500  -26.7470  -17.1580 N.3    14  TYR14      -0.1227
      2  CA         1.4250  -25.9190  -15.9700 C.3    14  TYR14       0.1736
      3  C          0.1080  -25.1940  -15.7380 C.2    14  TYR14       0.2595
      4  O         -0.2940  -24.3630  -16.5450 O.2    14  TYR14      -0.2718
      5  CB         2.5250  -24.8750  -16.1290 C.3    14  TYR14       0.0548
      6  CG         3.9130  -25.4370  -16.2860 C.ar   14  TYR14      -0.0200
      7  CD1        4.2620  -26.1900  -17.4010 C.ar   14  TYR14      -0.0009
      8  CD2        4.8930  -25.1930  -15.3250 C.ar   14  TYR14      -0.0009
      9  CE1        5.5530  -26.6790  -17.5550 C.ar   14  TYR14       0.0417
     10  CE2        6.1880  -25.6810  -15.4710 C.ar   14  TYR14       0.0417
     11  CZ         6.5110  -26.4170  -16.5820 C.ar   14  TYR14       0.1957
     12  OH         7.7960  -26.8740  -16.7280 O.3    14  TYR14      -0.2866
     13  N         -0.5570  -25.4950  -14.6330 N.am   15  ILE15      -0.1980
     14  CA        -1.8180  -24.8500  -14.3090 C.3    15  ILE15       0.1595
     15  C         -1.8290  -24.3860  -12.8580 C.2    15  ILE15       0.2287
     16  O         -0.7860  -24.3200  -12.1980 O.2    15  ILE15      -0.2864
     17  CB        -3.0090  -25.8000  -14.5380 C.3    15  ILE15       0.0276
     18  CG1       -2.7200  -27.1600  -13.9030 C.3    15  ILE15       0.0022
     19  CG2       -3.2980  -25.9210  -16.0300 C.3    15  ILE15       0.0022
     20  CD1       -3.8550  -28.1540  -14.0230 C.3    15  ILE15       0.0001
     21  N         -7.3820  -23.8650  -10.2760 N.3    19  ASP19      -0.1239
     22  CA        -8.0570  -23.7980  -11.5660 C.3    19  ASP19       0.1674
     23  C         -9.1170  -24.8880  -11.5900 C.2    19  ASP19       0.2266
     24  O         -8.8730  -26.0250  -11.1760 O.2    19  ASP19      -0.2867
     25  CB        -7.0660  -24.0040  -12.7100 C.3    19  ASP19       0.1410
     26  CG        -6.0540  -22.8830  -12.8090 C.2    19  ASP19       0.3668
     27  OD1       -6.2610  -21.8300  -12.1650 O.co2  19  ASP19      -0.2456
     28  OD2       -5.0560  -23.0460  -13.5390 O.co2  19  ASP19      -0.2456
     29  N          5.6240  -22.7760   -4.9010 N.3    49  TYR49      -0.1227
     30  CA         5.3080  -21.4150   -5.3020 C.3    49  TYR49       0.1736
     31  C          5.4940  -21.2510   -6.7950 C.2    49  TYR49       0.2596
     32  O          6.3230  -21.9210   -7.4120 O.2    49  TYR49      -0.2718
     33  CB         6.2070  -20.3990   -4.5890 C.3    49  TYR49       0.0548
     34  CG         6.0330  -18.9780   -5.1020 C.ar   49  TYR49      -0.0200
     35  CD1        4.9010  -18.2270   -4.7760 C.ar   49  TYR49      -0.0009
     36  CD2        6.9770  -18.4010   -5.9470 C.ar   49  TYR49      -0.0009
     37  CE1        4.7150  -16.9440   -5.2830 C.ar   49  TYR49       0.0417
     38  CE2        6.8020  -17.1220   -6.4570 C.ar   49  TYR49       0.0417
     39  CZ         5.6720  -16.4010   -6.1250 C.ar   49  TYR49       0.1957
     40  OH         5.4940  -15.1390   -6.6490 O.3    49  TYR49      -0.2866
     41  N          4.7190  -20.3410   -7.3640 N.am   50  GLY50      -0.1942
     42  CA         4.8220  -20.0640   -8.7780 C.3    50  GLY50       0.2014
     43  C          4.1410  -18.7580   -9.1470 C.2    50  GLY50       0.2639
     44  O          3.2650  -18.2730   -8.4270 O.2    50  GLY50      -0.2714
     45  N          4.5670  -18.1760  -10.2620 N.am   51  PHE51      -0.1959
     46  CA         3.9720  -16.9470  -10.7660 C.3    51  PHE51       0.1771
     47  C          4.1310  -16.9790  -12.2800 C.2    51  PHE51       0.2620
     48  O          5.2010  -17.3220  -12.7910 O.2    51  PHE51      -0.2715
     49  CB         4.6440  -15.7060  -10.1390 C.3    51  PHE51       0.0574
     50  CG         5.9430  -15.2960  -10.7780 C.ar   51  PHE51      -0.0200
     51  CD1        5.9540  -14.5870  -11.9760 C.ar   51  PHE51      -0.0042
     52  CD2        7.1560  -15.6130  -10.1780 C.ar   51  PHE51      -0.0042
     53  CE1        7.1610  -14.1810  -12.5630 C.ar   51  PHE51      -0.0003
     54  CE2        8.3740  -15.2130  -10.7530 C.ar   51  PHE51      -0.0003
     55  CZ         8.3740  -14.5020  -11.9540 C.ar   51  PHE51      -0.0000
     56  N          3.0540  -16.6620  -12.9930 N.am   52  GLY52      -0.1954
     57  CA         3.0970  -16.6750  -14.4460 C.3    52  GLY52       0.1869
     58  C          2.5480  -15.4060  -15.0640 C.2    52  GLY52       0.2309
     59  O          2.9500  -14.3000  -14.6960 O.2    52  GLY52      -0.2863
     60  N         -2.3990  -19.6230   -4.5950 N.3    54  ASP54      -0.1225
     61  CA        -2.4460  -20.6450   -5.6410 C.3    54  ASP54       0.1805
     62  C         -1.1370  -21.4380   -5.7190 C.2    54  ASP54       0.2598
     63  O         -0.0510  -20.8800   -5.8100 O.2    54  ASP54      -0.2718
     64  CB        -2.6260  -19.8630   -6.9480 C.3    54  ASP54       0.1424
     65  CG        -3.5560  -20.5780   -7.9190 C.2    54  ASP54       0.3668
     66  OD1       -4.0370  -21.6560   -7.5770 O.co2  54  ASP54      -0.2456
     67  OD2       -3.7780  -20.0500   -9.0060 O.co2  54  ASP54      -0.2456
     68  N         -1.2490  -22.7860   -5.6500 N.am   55  LEU55      -0.1966
     69  CA        -0.0710  -23.6390   -5.8670 C.3    55  LEU55       0.1713
     70  C         -0.0280  -24.1490   -7.3150 C.2    55  LEU55       0.2458
     71  O         -1.0070  -24.6490   -7.8570 O.2    55  LEU55      -0.2730
     72  CB        -0.2100  -24.8520   -4.9440 C.3    55  LEU55       0.0310
     73  CG         0.1630  -24.5690   -3.4880 C.3    55  LEU55       0.0022
     74  CD1        0.4470  -25.8580   -2.7180 C.3    55  LEU55       0.0001
     75  CD2        1.4060  -23.6930   -3.3450 C.3    55  LEU55       0.0001
     76  N          1.1480  -24.0080   -7.9580 N.am   56  PRO56      -0.2727
     77  CA         1.3090  -24.4620   -9.3320 C.3    56  PRO56       0.1402
     78  C          1.1470  -25.9690   -9.4160 C.2    56  PRO56       0.2269
     79  O          1.6260  -26.7140   -8.5720 O.2    56  PRO56      -0.2865
     80  CB         2.7060  -24.0890   -9.7990 C.3    56  PRO56       0.0296
     81  CG         3.5160  -23.6580   -8.5760 C.3    56  PRO56       0.0237
     82  CD         2.3920  -23.4500   -7.4590 C.3    56  PRO56       0.0939
     83  N         -5.6670  -20.0270  -18.9060 N.3    81  ASP81      -0.1225
     84  CA        -4.4500  -19.2620  -18.6400 C.3    81  ASP81       0.1805
     85  C         -3.5430  -20.2170  -17.8820 C.2    81  ASP81       0.2598
     86  O         -3.9530  -20.8840  -16.9300 O.2    81  ASP81      -0.2718
     87  CB        -4.7790  -17.9530  -17.8980 C.3    81  ASP81       0.1424
     88  CG        -3.8110  -16.7910  -18.2300 C.2    81  ASP81       0.3668
     89  OD1       -4.2270  -15.6820  -18.5700 O.co2  81  ASP81      -0.2456
     90  OD2       -2.5770  -17.0320  -18.1360 O.co2  81  ASP81      -0.2456
     91  N         -2.3120  -20.3170  -18.3760 N.am   82  GLY82      -0.1942
     92  CA        -1.2910  -21.1900  -17.8190 C.3    82  GLY82       0.2014
     93  C         -0.2040  -21.3560  -18.8700 C.2    82  GLY82       0.2638
     94  O          0.1740  -20.3850  -19.5300 O.2    82  GLY82      -0.2714
     95  N          0.3010  -22.5760  -19.0340 N.am   83  MET83      -0.1976
     96  CA         1.3520  -22.8320  -20.0180 C.3    83  MET83       0.1605
     97  C          1.5290  -24.3090  -20.3480 C.2    83  MET83       0.2287
     98  O          1.3820  -25.1740  -19.4840 O.2    83  MET83      -0.2864
     99  CB         2.6860  -22.2710  -19.5250 C.3    83  MET83       0.0413
    100  CG         3.8580  -22.5450  -20.4520 C.3    83  MET83       0.0598
    101  SD         5.5270  -21.8580  -19.7490 S.3    83  MET83      -0.1393
    102  CE         6.3100  -21.1580  -21.3400 C.3    83  MET83       0.0692
@<TRIPOS>BOND
     1   102   101    1
     2   100   101    1
     3   100    99    1
     4    97    96    1
     5    97    98    2
     6    96    99    1
     7    96    95    1
     8    94    93    2
     9    95    93   am
    10    83    84    1
    11    93    92    1
    12    84    87    1
    13    84    85    1
    14    89    88   ar
    15    91    85   am
    16    91    92    1
    17    88    90   ar
    18    88    87    1
    19    85    86    2
    20     9     7   ar
    21     9    11   ar
    22     7     6   ar
    23     1     2    1
    24    12    11    1
    25    11    10   ar
    26     4     3    2
    27     6     5    1
    28     6     8   ar
    29     5     2    1
    30    19    17    1
    31     2     3    1
    32     3    13   am
    33    10     8   ar
    34    58    59    2
    35    58    57    1
    36    13    14    1
    37    17    14    1
    38    17    18    1
    39    57    56    1
    40    14    15    1
    41    20    18    1
    42    28    26   ar
    43    56    47   am
    44    15    16    2
    45    26    25    1
    46    26    27   ar
    47    48    47    2
    48    25    22    1
    49    53    51   ar
    50    53    55   ar
    51    47    46    1
    52    51    50   ar
    53    55    54   ar
    54    23    22    1
    55    23    24    2
    56    22    21    1
    57    50    52   ar
    58    50    49    1
    59    46    45    1
    60    46    49    1
    61    54    52   ar
    62    45    43   am
    63    80    77    1
    64    80    81    1
    65    78    77    1
    66    78    79    2
    67    77    76    1
    68    43    42    1
    69    43    44    2
    70    67    65   ar
    71    42    41    1
    72    81    82    1
    73    76    82    1
    74    76    70   am
    75    65    66   ar
    76    65    64    1
    77    71    70    2
    78    32    31    2
    79    41    31   am
    80    70    69    1
    81    64    61    1
    82    31    30    1
    83    40    39    1
    84    38    39   ar
    85    38    36   ar
    86    39    37   ar
    87    36    34   ar
    88    69    68    1
    89    69    72    1
    90    63    62    2
    91    62    68   am
    92    62    61    1
    93    61    60    1
    94    30    29    1
    95    30    33    1
    96    37    35   ar
    97    34    35   ar
    98    34    33    1
    99    72    73    1
   100    73    75    1
   101    73    74    1
