@<TRIPOS>MOLECULE
tmp/2dcmA00.pdb
 175 176 0 0 0
SMALL
GASTEIGER

@<TRIPOS>ATOM
      1  N        -12.5940   53.1210   64.7650 N.3   138  GLN138     -0.1231
      2  CA       -12.0240   51.9210   65.3450 C.3   138  GLN138      0.1698
      3  C        -10.4990   51.9010   65.2880 C.2   138  GLN138      0.2592
      4  O         -9.8960   50.8540   65.1050 O.2   138  GLN138     -0.2718
      5  CB       -12.5810   50.6850   64.6320 C.3   138  GLN138      0.0381
      6  CG       -14.0450   50.3800   64.9030 C.3   138  GLN138      0.0905
      7  CD       -14.3040   49.8810   66.3260 C.2   138  GLN138      0.2608
      8  OE1      -14.8020   50.6200   67.1850 O.2   138  GLN138     -0.2717
      9  NE2      -13.9640   48.6230   66.5770 N.am  138  GLN138     -0.0878
     10  N         -9.8610   53.0480   65.4310 N.am  139  ARG139     -0.1966
     11  CA        -8.4060   53.0670   65.4070 C.3   139  ARG139      0.1729
     12  C         -7.7660   52.4230   64.1760 C.2   139  ARG139      0.2616
     13  O         -6.7030   51.8160   64.2690 O.2   139  ARG139     -0.2715
     14  CB        -7.8690   52.4090   66.6760 C.3   139  ARG139      0.0348
     15  CG        -8.1650   53.2340   67.8930 C.3   139  ARG139      0.0492
     16  CD        -7.8760   52.5280   69.1890 C.3   139  ARG139      0.2205
     17  NE        -7.0570   53.3880   70.0350 N.pl3 139  ARG139     -0.0865
     18  CZ        -5.7520   53.5760   69.8440 C.cat 139  ARG139      0.5346
     19  NH1       -5.1360   52.9540   68.8450 N.pl3 139  ARG139      0.1354
     20  NH2       -5.0600   54.3930   70.6300 N.pl3 139  ARG139      0.1354
     21  N         -8.4220   52.5520   63.0270 N.am  140  GLU140     -0.1977
     22  CA        -7.9030   52.0420   61.7630 C.3   140  GLU140      0.1602
     23  C         -7.2890   53.2400   61.0100 C.2   140  GLU140      0.2287
     24  O         -7.3060   54.3680   61.4990 O.2   140  GLU140     -0.2864
     25  CB        -9.0330   51.4280   60.9370 C.3   140  GLU140      0.0415
     26  CG        -9.5920   50.1480   61.5050 C.3   140  GLU140      0.1163
     27  CD        -8.6980   48.9470   61.2400 C.2   140  GLU140      0.3649
     28  OE1       -8.3870   48.7020   60.0530 O.co2 140  GLU140     -0.2457
     29  OE2       -8.3140   48.2460   62.2060 O.co2 140  GLU140     -0.2457
     30  N         -1.7950   32.7270   63.2130 N.3   448  TYR448     -0.1241
     31  CA        -2.4790   34.0070   63.2430 C.3   448  TYR448      0.1605
     32  C         -3.0970   34.0550   61.8430 C.2   448  TYR448      0.2264
     33  O         -4.3050   33.8950   61.6820 O.2   448  TYR448     -0.2867
     34  CB        -1.5280   35.1840   63.4330 C.3   448  TYR448      0.0534
     35  CG        -2.3060   36.4640   63.5810 C.ar  448  TYR448     -0.0201
     36  CD1       -3.1580   36.6490   64.6670 C.ar  448  TYR448     -0.0009
     37  CD2       -2.2770   37.4510   62.5950 C.ar  448  TYR448     -0.0009
     38  CE1       -3.9710   37.7760   64.7720 C.ar  448  TYR448      0.0417
     39  CE2       -3.0930   38.5920   62.6920 C.ar  448  TYR448      0.0417
     40  CZ        -3.9390   38.7400   63.7870 C.ar  448  TYR448      0.1957
     41  OH        -4.7600   39.8340   63.8960 O.3   448  TYR448     -0.2866
     42  N         -4.2550   39.6740   58.2420 N.3   451  PRO451     -0.2102
     43  CA        -3.5020   40.7960   57.6740 C.3   451  PRO451      0.1504
     44  C         -2.8650   41.6930   58.7310 C.2   451  PRO451      0.2575
     45  O         -3.3390   41.7670   59.8670 O.2   451  PRO451     -0.2718
     46  CB        -4.5520   41.5270   56.8440 C.3   451  PRO451      0.0282
     47  CG        -5.7980   41.2840   57.6120 C.3   451  PRO451      0.0208
     48  CD        -5.6970   39.8330   57.9890 C.3   451  PRO451      0.0893
     49  N         -1.7830   42.3590   58.3410 N.am  452  HIS452     -0.1976
     50  CA        -1.0420   43.2730   59.2070 C.3   452  HIS452      0.1656
     51  C         -0.0730   42.5980   60.1650 C.2   452  HIS452      0.2291
     52  O          0.5530   43.2740   60.9680 O.2   452  HIS452     -0.2864
     53  CB        -1.9920   44.1600   60.0220 C.3   452  HIS452      0.0771
     54  CG        -2.5350   45.3330   59.2660 C.ar  452  HIS452      0.0820
     55  ND1       -1.7250   46.2490   58.6290 N.ar  452  HIS452     -0.2267
     56  CD2       -3.8080   45.7470   59.0540 C.ar  452  HIS452      0.1154
     57  CE1       -2.4740   47.1730   58.0540 C.ar  452  HIS452      0.1986
     58  NE2       -3.7420   46.8910   58.2970 N.ar  452  HIS452     -0.2212
     59  N         -4.8500   33.2300   68.3530 N.3   532  TRP532     -0.1227
     60  CA        -5.5980   34.2430   69.0760 C.3   532  TRP532      0.1737
     61  C         -6.1520   35.2640   68.0970 C.2   532  TRP532      0.2595
     62  O         -5.4950   35.6000   67.1100 O.2   532  TRP532     -0.2718
     63  CB        -4.7000   34.9430   70.0900 C.3   532  TRP532      0.0564
     64  CG        -5.4630   35.5810   71.2060 C.ar  532  TRP532      0.0003
     65  CD1       -6.0950   36.7960   71.1920 C.ar  532  TRP532      0.0946
     66  CD2       -5.7570   34.9900   72.4750 C.ar  532  TRP532      0.0152
     67  NE1       -6.7690   36.9920   72.3740 N.ar  532  TRP532     -0.2442
     68  CE2       -6.5780   35.8990   73.1790 C.ar  532  TRP532      0.0810
     69  CE3       -5.4090   33.7770   73.0830 C.ar  532  TRP532      0.0012
     70  CZ2       -7.0570   35.6310   74.4630 C.ar  532  TRP532      0.0191
     71  CZ3       -5.8830   33.5110   74.3540 C.ar  532  TRP532      0.0001
     72  CH2       -6.7010   34.4370   75.0330 C.ar  532  TRP532      0.0015
     73  N         -7.3610   35.7470   68.3780 N.am  533  ALA533     -0.1966
     74  CA        -8.0300   36.7420   67.5430 C.3   533  ALA533      0.1728
     75  C         -8.2180   36.1670   66.1430 C.2   533  ALA533      0.2616
     76  O         -9.0140   35.2550   65.9610 O.2   533  ALA533     -0.2715
     77  CB        -7.2090   38.0100   67.5150 C.3   533  ALA533      0.0334
     78  N         -7.5010   36.6850   65.1520 N.am  534  TYR534     -0.1974
     79  CA        -7.6150   36.1420   63.8020 C.3   534  TYR534      0.1639
     80  C         -7.1550   34.6900   63.8680 C.2   534  TYR534      0.2290
     81  O         -7.6320   33.8390   63.1170 O.2   534  TYR534     -0.2864
     82  CB        -6.7180   36.8870   62.8240 C.3   534  TYR534      0.0560
     83  CG        -7.1740   36.7300   61.3960 C.ar  534  TYR534     -0.0198
     84  CD1       -7.9530   37.7110   60.7860 C.ar  534  TYR534     -0.0009
     85  CD2       -6.8360   35.5980   60.6540 C.ar  534  TYR534     -0.0009
     86  CE1       -8.3810   37.5780   59.4800 C.ar  534  TYR534      0.0417
     87  CE2       -7.2580   35.4510   59.3400 C.ar  534  TYR534      0.0417
     88  CZ        -8.0300   36.4470   58.7570 C.ar  534  TYR534      0.1957
     89  OH        -8.4460   36.3200   57.4470 O.3   534  TYR534     -0.2866
     90  N        -12.7860   35.2780   66.1900 N.3   559  VAL559     -0.1245
     91  CA       -13.8240   35.9010   65.3920 C.3   559  VAL559      0.1561
     92  C        -14.5490   34.6820   64.8260 C.2   559  VAL559      0.2260
     93  O        -13.9300   33.7930   64.2430 O.2   559  VAL559     -0.2867
     94  CB       -13.2380   36.7490   64.2550 C.3   559  VAL559      0.0252
     95  CG1      -14.3570   37.3470   63.4330 C.3   559  VAL559      0.0019
     96  CG2      -12.3770   37.8550   64.8390 C.3   559  VAL559      0.0019
     97  N        -18.0550   36.9080   60.9750 N.3   562  TRP562     -0.1241
     98  CA       -17.5280   38.1960   60.5470 C.3   562  TRP562      0.1605
     99  C        -18.5610   39.2970   60.3920 C.2   562  TRP562      0.2264
    100  O        -18.2040   40.4570   60.2320 O.2   562  TRP562     -0.2867
    101  CB       -16.7220   38.0500   59.2630 C.3   562  TRP562      0.0550
    102  CG       -15.4100   37.4060   59.5280 C.ar  562  TRP562      0.0003
    103  CD1      -15.1410   36.0760   59.5140 C.ar  562  TRP562      0.0946
    104  CD2      -14.2030   38.0580   59.9520 C.ar  562  TRP562      0.0152
    105  NE1      -13.8490   35.8490   59.9070 N.ar  562  TRP562     -0.2442
    106  CE2      -13.2460   37.0470   60.1830 C.ar  562  TRP562      0.0810
    107  CE3      -13.8390   39.4000   60.1630 C.ar  562  TRP562      0.0012
    108  CZ2      -11.9380   37.3280   60.6170 C.ar  562  TRP562      0.0191
    109  CZ3      -12.5380   39.6830   60.5940 C.ar  562  TRP562      0.0001
    110  CH2      -11.6040   38.6470   60.8170 C.ar  562  TRP562      0.0015
    111  N        -18.0320   41.6240   63.1250 N.3   565  TYR565     -0.1227
    112  CA       -16.7640   42.3070   63.3080 C.3   565  TYR565      0.1736
    113  C        -16.9810   43.7550   62.8640 C.2   565  TYR565      0.2595
    114  O        -17.9120   44.0540   62.1060 O.2   565  TYR565     -0.2718
    115  CB       -15.6280   41.6720   62.5080 C.3   565  TYR565      0.0548
    116  CG       -14.2880   41.9890   63.1370 C.ar  565  TYR565     -0.0200
    117  CD1      -13.9650   41.4940   64.4030 C.ar  565  TYR565     -0.0009
    118  CD2      -13.3840   42.8510   62.5190 C.ar  565  TYR565     -0.0009
    119  CE1      -12.7850   41.8580   65.0420 C.ar  565  TYR565      0.0417
    120  CE2      -12.1980   43.2220   63.1480 C.ar  565  TYR565      0.0417
    121  CZ       -11.9050   42.7260   64.4120 C.ar  565  TYR565      0.1957
    122  OH       -10.7510   43.1160   65.0700 O.3   565  TYR565     -0.2866
    123  N        -16.1360   44.6510   63.3550 N.am  566  GLU566     -0.1979
    124  CA       -16.2380   46.0630   63.0280 C.3   566  GLU566      0.1602
    125  C        -16.2990   46.3770   61.5340 C.2   566  GLU566      0.2287
    126  O        -15.7670   45.6480   60.7020 O.2   566  GLU566     -0.2864
    127  CB       -15.0660   46.8150   63.6420 C.3   566  GLU566      0.0415
    128  CG       -13.7200   46.5260   63.0130 C.3   566  GLU566      0.1163
    129  CD       -12.6190   47.2850   63.7150 C.2   566  GLU566      0.3649
    130  OE1      -12.4490   47.0570   64.9340 O.co2 566  GLU566     -0.2457
    131  OE2      -11.9390   48.1090   63.0610 O.co2 566  GLU566     -0.2457
    132  N        -12.2410   47.5110   59.7680 N.3   569  TYR569     -0.1241
    133  CA       -11.3580   46.3950   59.4000 C.3   569  TYR569      0.1605
    134  C        -12.1060   45.3760   58.5200 C.2   569  TYR569      0.2264
    135  O        -11.7550   45.1540   57.3620 O.2   569  TYR569     -0.2867
    136  CB       -10.8490   45.7100   60.6750 C.3   569  TYR569      0.0534
    137  CG        -9.9150   44.5270   60.4780 C.ar  569  TYR569     -0.0201
    138  CD1       -8.5520   44.6350   60.7790 C.ar  569  TYR569     -0.0009
    139  CD2      -10.4070   43.2730   60.0960 C.ar  569  TYR569     -0.0009
    140  CE1       -7.7130   43.5310   60.7210 C.ar  569  TYR569      0.0417
    141  CE2       -9.5720   42.1600   60.0350 C.ar  569  TYR569      0.0417
    142  CZ        -8.2280   42.2940   60.3540 C.ar  569  TYR569      0.1957
    143  OH        -7.4030   41.1840   60.3440 O.3   569  TYR569     -0.2866
    144  N        -12.4050   44.2740   71.2640 N.3   610  VAL610     -0.1231
    145  CA       -11.8820   44.0250   69.9260 C.3   610  VAL610      0.1692
    146  C        -12.7280   42.9460   69.2590 C.2   610  VAL610      0.2591
    147  O        -13.2760   43.1510   68.1730 O.2   610  VAL610     -0.2718
    148  CB       -10.4190   43.5740   69.9910 C.3   610  VAL610      0.0266
    149  CG1       -9.9090   43.2410   68.5950 C.3   610  VAL610      0.0020
    150  CG2       -9.5810   44.6750   70.6290 C.3   610  VAL610      0.0020
    151  N        -12.8170   41.7920   69.9160 N.am  611  VAL611     -0.1980
    152  CA       -13.6380   40.6720   69.4430 C.3   611  VAL611      0.1595
    153  C        -14.6930   40.4440   70.5330 C.2   611  VAL611      0.2287
    154  O        -14.4190   39.7760   71.5370 O.2   611  VAL611     -0.2864
    155  CB       -12.8130   39.3850   69.2710 C.3   611  VAL611      0.0276
    156  CG1      -13.7120   38.2610   68.8330 C.3   611  VAL611      0.0022
    157  CG2      -11.7250   39.6000   68.2500 C.3   611  VAL611      0.0022
    158  N         -9.1790   42.0440   75.3520 N.3   640  HIS640     -0.1226
    159  CA        -8.8080   41.1410   74.2590 C.3   640  HIS640      0.1752
    160  C         -7.6930   40.1390   74.5610 C.2   640  HIS640      0.2596
    161  O         -7.7770   38.9770   74.1660 O.2   640  HIS640     -0.2718
    162  CB        -8.4410   41.9570   73.0250 C.3   640  HIS640      0.0759
    163  CG        -8.2480   41.1320   71.7950 C.ar  640  HIS640      0.0818
    164  ND1       -9.2200   40.2810   71.3120 N.ar  640  HIS640     -0.2268
    165  CD2       -7.1930   41.0170   70.9540 C.ar  640  HIS640      0.1154
    166  CE1       -8.7700   39.6750   70.2280 C.ar  640  HIS640      0.1986
    167  NE2       -7.5430   40.1040   69.9890 N.ar  640  HIS640     -0.2212
    168  N         -6.6490   40.5870   75.2520 N.am  641  ASN641     -0.1974
    169  CA        -5.5300   39.7120   75.6040 C.3   641  ASN641      0.1688
    170  C         -5.3090   39.7220   77.1070 C.2   641  ASN641      0.2292
    171  O         -5.4970   40.7480   77.7540 O.2   641  ASN641     -0.2864
    172  CB        -4.2460   40.1760   74.9110 C.3   641  ASN641      0.1181
    173  CG        -4.2820   39.9630   73.4080 C.2   641  ASN641      0.2629
    174  OD1       -4.2610   38.8220   72.9250 O.2   641  ASN641     -0.2716
    175  ND2       -4.3440   41.0630   72.6560 N.am  641  ASN641     -0.0877
@<TRIPOS>BOND
     1    46    47    1
     2    46    43    1
     3   135   134    2
     4    89    88    1
     5    47    48    1
     6    43    42    1
     7    43    44    1
     8    48    42    1
     9    57    58   ar
    10    57    55   ar
    11    58    56   ar
    12    49    44   am
    13    49    50    1
    14   134   133    1
    15    55    54   ar
    16    44    45    2
    17    88    87   ar
    18    88    86   ar
    19    56    54   ar
    20    50    53    1
    21    50    51    1
    22   101   102    1
    23   101    98    1
    24    54    53    1
    25    87    85   ar
    26   133   132    1
    27   133   136    1
    28    86    84   ar
    29   103   102   ar
    30   103   105   ar
    31   102   104   ar
    32   105   106   ar
    33   104   107   ar
    34   104   106   ar
    35   141   139   ar
    36   141   142   ar
    37    28    27   ar
    38   139   137   ar
    39   107   109   ar
    40    51    52    2
    41   106   108   ar
    42   100    99    2
    43   143   142    1
    44   142   140   ar
    45    99    98    1
    46   137   136    1
    47   137   138   ar
    48    98    97    1
    49   109   110   ar
    50   108   110   ar
    51    85    83   ar
    52   126   125    2
    53   140   138   ar
    54    84    83   ar
    55    25    26    1
    56    25    22    1
    57    23    24    2
    58    23    22    1
    59    27    26    1
    60    27    29   ar
    61    83    82    1
    62   125   124    1
    63    33    32    2
    64    22    21    1
    65    32    31    1
    66   114   113    2
    67   115   116    1
    68   115   112    1
    69   118   116   ar
    70   118   120   ar
    71    37    39   ar
    72    37    35   ar
    73    39    40   ar
    74    82    79    1
    75   113   112    1
    76   113   123   am
    77   128   127    1
    78   128   129    1
    79    21    12   am
    80   124   123    1
    81   124   127    1
    82   131   129   ar
    83    81    80    2
    84   111   112    1
    85   116   117   ar
    86   120   121   ar
    87    30    31    1
    88    31    34    1
    89    95    94    1
    90    34    35    1
    91    35    36   ar
    92   129   130   ar
    93    40    41    1
    94    40    38   ar
    95    79    80    1
    96    79    78    1
    97    12    13    2
    98    12    11    1
    99    93    92    2
   100    94    96    1
   101    94    91    1
   102   117   119   ar
   103   121   119   ar
   104   121   122    1
   105     5     6    1
   106     5     2    1
   107    36    38   ar
   108     1     2    1
   109    92    91    1
   110     6     7    1
   111     4     3    2
   112    78    75   am
   113     3     2    1
   114     3    10   am
   115    91    90    1
   116    11    10    1
   117    11    14    1
   118    76    75    2
   119    75    74    1
   120     7     9   am
   121     7     8    2
   122    14    15    1
   123    62    61    2
   124    77    74    1
   125    74    73    1
   126    15    16    1
   127    61    73   am
   128    61    60    1
   129   147   146    2
   130   157   155    1
   131    59    60    1
   132   149   148    1
   133   156   155    1
   134    19    18    1
   135    60    63    1
   136    16    17    1
   137   146   151   am
   138   146   145    1
   139   155   152    1
   140   152   151    1
   141   152   153    1
   142    18    17    2
   143    18    20    1
   144   145   148    1
   145   145   144    1
   146   167   166   ar
   147   167   165   ar
   148   148   150    1
   149    63    64    1
   150   166   164   ar
   151   153   154    2
   152   165   163   ar
   153    65    64   ar
   154    65    67   ar
   155    64    66   ar
   156   164   163   ar
   157   163   162    1
   158    67    68   ar
   159    66    69   ar
   160    66    68   ar
   161   175   173   am
   162   174   173    2
   163   162   159    1
   164    69    71   ar
   165    68    70   ar
   166   173   172    1
   167   161   160    2
   168   159   160    1
   169   159   158    1
   170    71    72   ar
   171    70    72   ar
   172   160   168   am
   173   172   169    1
   174   168   169    1
   175   169   170    1
   176   170   171    2
