@<TRIPOS>MOLECULE
tmp/2dcnB01.pdb
 171 158 0 0 0
SMALL
GASTEIGER

@<TRIPOS>ATOM
      1  N         -0.5020    9.1970    1.4000 N.3    99  LEU99      -0.1245
      2  CA        -0.1920   10.4900    2.0090 C.3    99  LEU99       0.1561
      3  C         -0.4910   10.5580    3.5010 C.2    99  LEU99       0.2260
      4  O         -0.2300   11.5780    4.1230 O.2    99  LEU99      -0.2867
      5  CB        -0.8900   11.6500    1.2760 C.3    99  LEU99       0.0270
      6  CG        -0.7210   11.7860   -0.2470 C.3    99  LEU99       0.0019
      7  CD1       -1.4230   13.0210   -0.7730 C.3    99  LEU99       0.0001
      8  CD2        0.7530   11.7350   -0.6890 C.3    99  LEU99       0.0001
      9  N         -2.2190   21.5000   23.0490 N.3   161  ASP161     -0.1239
     10  CA        -2.5060   20.8800   21.7540 C.3   161  ASP161      0.1674
     11  C         -3.4830   19.7480   22.0560 C.2   161  ASP161      0.2266
     12  O         -3.1750   18.8510   22.8530 O.2   161  ASP161     -0.2867
     13  CB        -1.2320   20.3330   21.1120 C.3   161  ASP161      0.1410
     14  CG        -1.4330   19.8920   19.6550 C.2   161  ASP161      0.3668
     15  OD1       -0.5640   20.2100   18.8190 O.co2 161  ASP161     -0.2456
     16  OD2       -2.4450   19.2230   19.3330 O.co2 161  ASP161     -0.2456
     17  N         -4.5210   17.2170   20.3720 N.3   163  ASN163     -0.1240
     18  CA        -3.8440   15.9430   20.0570 C.3   163  ASN163      0.1653
     19  C         -4.6500   14.7090   20.4510 C.2   163  ASN163      0.2266
     20  O         -4.1700   13.8620   21.2190 O.2   163  ASN163     -0.2867
     21  CB        -2.4600   15.8720   20.7290 C.3   163  ASN163      0.1155
     22  CG        -1.3210   16.3060   19.8090 C.2   163  ASN163      0.2627
     23  OD1       -1.4240   16.2530   18.5810 O.2   163  ASN163     -0.2716
     24  ND2       -0.2190   16.7450   20.4160 N.am  163  ASN163     -0.0877
     25  N         -5.9570   11.1560   20.3860 N.3   165  ARG165     -0.1245
     26  CA        -5.5770    9.8480   19.8630 C.3   165  ARG165      0.1563
     27  C         -6.6360    8.8470   20.3490 C.2   165  ARG165      0.2260
     28  O         -6.7310    8.5530   21.5540 O.2   165  ARG165     -0.2867
     29  CB        -4.1600    9.4310   20.3140 C.3   165  ARG165      0.0307
     30  CG        -3.0580   10.5050   20.2000 C.3   165  ARG165      0.0489
     31  CD        -2.2320   10.4890   18.8970 C.3   165  ARG165      0.2205
     32  NE        -2.5540   11.6340   18.0530 N.pl3 165  ARG165     -0.0865
     33  CZ        -1.7770   12.6890   17.7930 C.cat 165  ARG165      0.5346
     34  NH1       -0.5380   12.8160   18.2620 N.pl3 165  ARG165      0.1354
     35  NH2       -2.2740   13.6410   17.0180 N.pl3 165  ARG165      0.1354
     36  N         -7.4820   21.1780   15.6290 N.3   193  ASP193     -0.1239
     37  CA        -7.8360   21.0320   14.2070 C.3   193  ASP193      0.1674
     38  C         -9.3240   20.6700   14.1110 C.2   193  ASP193      0.2266
     39  O         -9.9820   20.4820   15.1500 O.2   193  ASP193     -0.2867
     40  CB        -6.9480   19.9790   13.5090 C.3   193  ASP193      0.1410
     41  CG        -6.9230   18.6260   14.2310 C.2   193  ASP193      0.3668
     42  OD1       -5.8300   18.0370   14.3260 O.co2 193  ASP193     -0.2456
     43  OD2       -7.9780   18.1270   14.6910 O.co2 193  ASP193     -0.2456
     44  N         -5.7670   23.9010   12.7620 N.3   223  LYS223     -0.1231
     45  CA        -5.0270   23.3240   11.6300 C.3   223  LYS223      0.1693
     46  C         -5.9960   22.6200   10.7210 C.2   223  LYS223      0.2592
     47  O         -7.0310   22.1640   11.1770 O.2   223  LYS223     -0.2718
     48  CB        -3.9630   22.3460   12.1150 C.3   223  LYS223      0.0285
     49  CG        -2.8340   23.0150   12.8700 C.3   223  LYS223      0.0035
     50  CD        -1.7790   22.0100   13.2900 C.3   223  LYS223      0.0206
     51  CE        -1.8380   21.7650   14.7870 C.3   223  LYS223      0.1093
     52  NZ        -2.7950   20.7160   15.1680 N.3   223  LYS223     -0.1314
     53  N         -5.6740   22.5270    9.4380 N.am  224  LEU224     -0.1966
     54  CA        -6.6710   22.0380    8.4870 C.3   224  LEU224      0.1728
     55  C         -6.1520   20.8910    7.6390 C.2   224  LEU224      0.2617
     56  O         -6.8230   20.4750    6.6870 O.2   224  LEU224     -0.2715
     57  CB        -7.2080   23.1740    7.5880 C.3   224  LEU224      0.0311
     58  CG        -7.6940   24.5110    8.1900 C.3   224  LEU224      0.0022
     59  CD1       -7.9520   25.5480    7.0880 C.3   224  LEU224      0.0001
     60  CD2       -8.9180   24.3580    9.0680 C.3   224  LEU224      0.0001
     61  N         -4.9720   20.3870    7.9910 N.am  225  GLY225     -0.1941
     62  CA        -4.3460   19.2950    7.2610 C.3   225  GLY225      0.1998
     63  C         -3.5400   19.8620    6.1190 C.2   225  GLY225      0.2480
     64  O         -2.9390   20.9150    6.2670 O.2   225  GLY225     -0.2729
     65  N         -3.5190   19.1690    4.9650 N.am  226  PRO226     -0.2726
     66  CA        -2.7510   19.6470    3.8020 C.3   226  PRO226      0.1402
     67  C         -3.0090   21.1030    3.4050 C.2   226  PRO226      0.2269
     68  O         -2.1040   21.7690    2.8910 O.2   226  PRO226     -0.2865
     69  CB        -3.2000   18.7020    2.6800 C.3   226  PRO226      0.0296
     70  CG        -3.5310   17.4280    3.4010 C.3   226  PRO226      0.0237
     71  CD        -4.1860   17.8790    4.6880 C.3   226  PRO226      0.0939
     72  N         -3.5450   23.8370    5.1220 N.3   228  GLY228     -0.1210
     73  CA        -2.9740   24.9080    5.9330 C.3   228  GLY228      0.1956
     74  C         -3.5740   24.9920    7.3190 C.2   228  GLY228      0.2611
     75  O         -3.8880   23.9710    7.9260 O.2   228  GLY228     -0.2717
     76  N         -3.7320   26.2130    7.8210 N.am  229  ALA229     -0.1979
     77  CA        -4.1800   26.4500    9.1930 C.3   229  ALA229      0.1597
     78  C         -4.7480   27.8510    9.3170 C.2   229  ALA229      0.2287
     79  O         -4.4870   28.7100    8.4760 O.2   229  ALA229     -0.2864
     80  CB        -3.0260   26.2550   10.1950 C.3   229  ALA229      0.0319
     81  N         -1.3630   25.9120    3.0400 N.3   242  GLY242     -0.1210
     82  CA        -0.2740   24.9610    2.9130 C.3   242  GLY242      0.1956
     83  C          0.3800   25.0120    1.5410 C.2   242  GLY242      0.2612
     84  O         -0.0380   25.7820    0.6720 O.2   242  GLY242     -0.2717
     85  N          1.4250   24.2010    1.3650 N.am  243  TYR243     -0.1962
     86  CA         2.1480   24.1070    0.1050 C.3   243  TYR243      0.1771
     87  C          2.0770   22.6660   -0.3780 C.2   243  TYR243      0.2619
     88  O          2.0070   21.7480    0.4290 O.2   243  TYR243     -0.2715
     89  CB         3.6240   24.4860    0.3070 C.3   243  TYR243      0.0574
     90  CG         3.8840   25.9110    0.7570 C.ar  243  TYR243     -0.0198
     91  CD1        3.7970   26.2690    2.1070 C.ar  243  TYR243     -0.0009
     92  CD2        4.2420   26.8960   -0.1710 C.ar  243  TYR243     -0.0009
     93  CE1        4.0490   27.5860    2.5230 C.ar  243  TYR243      0.0417
     94  CE2        4.4960   28.2030    0.2250 C.ar  243  TYR243      0.0417
     95  CZ         4.3990   28.5440    1.5730 C.ar  243  TYR243      0.1957
     96  OH         4.6530   29.8470    1.9660 O.3   243  TYR243     -0.2866
     97  N          2.0980   22.4720   -1.6910 N.am  244  GLN244     -0.1963
     98  CA         2.1230   21.1380   -2.2830 C.3   244  GLN244      0.1733
     99  C          3.5710   20.6320   -2.3400 C.2   244  GLN244      0.2616
    100  O          4.4070   21.1850   -3.0500 O.2   244  GLN244     -0.2715
    101  CB         1.4500   21.1720   -3.6730 C.3   244  GLN244      0.0408
    102  CG         1.5380   19.8820   -4.5070 C.3   244  GLN244      0.0908
    103  CD         0.8930   18.6560   -3.8380 C.2   244  GLN244      0.2608
    104  OE1       -0.3010   18.6640   -3.4980 O.2   244  GLN244     -0.2717
    105  NE2        1.6890   17.5870   -3.6660 N.am  244  GLN244     -0.0878
    106  N          3.8670   19.6060   -1.5500 N.am  245  VAL245     -0.1977
    107  CA         5.1930   19.0020   -1.5220 C.3   245  VAL245      0.1596
    108  C          5.0720   17.4800   -1.5470 C.2   245  VAL245      0.2287
    109  O          3.9950   16.9550   -1.2190 O.2   245  VAL245     -0.2864
    110  CB         6.0220   19.4310   -0.2870 C.3   245  VAL245      0.0276
    111  CG1        6.3960   20.8870   -0.3830 C.3   245  VAL245      0.0022
    112  CG2        5.2890   19.1150    1.0290 C.3   245  VAL245      0.0022
    113  N          5.2640   13.9070   -0.1200 N.3   247  VAL247     -0.1245
    114  CA         4.9520   13.5410    1.2590 C.3   247  VAL247      0.1561
    115  C          5.6420   12.2340    1.6100 C.2   247  VAL247      0.2260
    116  O          5.3140   11.1900    1.0270 O.2   247  VAL247     -0.2867
    117  CB         3.4200   13.4030    1.4770 C.3   247  VAL247      0.0252
    118  CG1        3.1420   12.9530    2.8840 C.3   247  VAL247      0.0019
    119  CG2        2.7090   14.7280    1.1960 C.3   247  VAL247      0.0019
    120  N          3.7450   12.4490    7.1740 N.3   250  VAL250     -0.1245
    121  CA         3.1210   13.6100    7.8050 C.3   250  VAL250      0.1561
    122  C          3.2690   13.6010    9.3280 C.2   250  VAL250      0.2260
    123  O          2.9980   14.6160    9.9560 O.2   250  VAL250     -0.2867
    124  CB         1.6050   13.7400    7.4510 C.3   250  VAL250      0.0252
    125  CG1        1.3920   13.9360    5.9340 C.3   250  VAL250      0.0019
    126  CG2        0.7880   12.5370    8.0280 C.3   250  VAL250      0.0019
    127  N          4.0460   16.7870   11.8270 N.3   253  ALA253     -0.1231
    128  CA         3.7710   18.0900   11.1850 C.3   253  ALA253      0.1694
    129  C          3.0140   19.0940   12.0950 C.2   253  ALA253      0.2592
    130  O          3.3360   20.2850   12.1070 O.2   253  ALA253     -0.2718
    131  CB         3.0510   17.9040    9.8630 C.3   253  ALA253      0.0304
    132  N          2.0390   18.5890   12.8560 N.am  254  GLY254     -0.1957
    133  CA         1.2510   19.3970   13.7860 C.3   254  GLY254      0.1869
    134  C          2.0880   20.0380   14.8680 C.2   254  GLY254      0.2309
    135  O          1.8680   21.2080   15.2250 O.2   254  GLY254     -0.2863
    136  N          4.3650   22.8620   13.3760 N.3   257  LEU257     -0.1245
    137  CA         3.5940   24.1050   13.2800 C.3   257  LEU257      0.1561
    138  C          3.3510   24.7880   14.6500 C.2   257  LEU257      0.2260
    139  O          3.6470   25.9700   14.8270 O.2   257  LEU257     -0.2867
    140  CB         2.2610   23.8210   12.5690 C.3   257  LEU257      0.0270
    141  CG         1.4130   25.0220   12.1680 C.3   257  LEU257      0.0019
    142  CD1        0.3150   24.6300   11.1670 C.3   257  LEU257      0.0001
    143  CD2        0.7990   25.7020   13.4120 C.3   257  LEU257      0.0001
    144  N          3.7410   27.3560    9.1220 N.3   279  ILE279     -0.1245
    145  CA         3.3270   26.5440    7.9620 C.3   279  ILE279      0.1561
    146  C          4.5380   26.0110    7.1720 C.2   279  ILE279      0.2260
    147  O          4.5440   24.8600    6.7540 O.2   279  ILE279     -0.2867
    148  CB         2.3660   27.3330    7.0040 C.3   279  ILE279      0.0252
    149  CG1        1.0790   27.7650    7.7300 C.3   279  ILE279      0.0019
    150  CG2        2.0840   26.5440    5.7280 C.3   279  ILE279      0.0019
    151  CD1        0.1680   26.6470    8.1980 C.3   279  ILE279      0.0001
    152  N          5.9280   22.9890    9.1130 N.3   282  SER282     -0.1202
    153  CA         5.0970   21.8040    8.9500 C.3   282  SER282      0.2020
    154  C          5.1750   21.2150    7.5330 C.2   282  SER282      0.2619
    155  O          5.2020   19.9750    7.3600 O.2   282  SER282     -0.2717
    156  CB         3.6550   22.0820    9.4080 C.3   282  SER282      0.2103
    157  OG         3.1310   23.2950    8.8950 O.3   282  SER282     -0.2182
    158  N          5.2620   22.1000    6.5350 N.am  283  THR283     -0.1952
    159  CA         5.5130   21.7270    5.1550 C.3   283  THR283      0.1897
    160  C          6.7940   20.8830    4.9860 C.2   283  THR283      0.2313
    161  O          6.7720   19.8250    4.3590 O.2   283  THR283     -0.2863
    162  CB         5.6110   22.9940    4.2780 C.3   283  THR283      0.1794
    163  OG1        4.3940   23.7360    4.4060 O.3   283  THR283     -0.2208
    164  CG2        5.8550   22.6320    2.8180 C.3   283  THR283      0.0378
    165  N          6.6800   17.1190    6.6530 N.3   286  VAL286     -0.1245
    166  CA         5.9920   15.9940    5.9700 C.3   286  VAL286      0.1561
    167  C          6.8460   15.3160    4.8900 C.2   286  VAL286      0.2260
    168  O          6.4950   14.2440    4.3940 O.2   286  VAL286     -0.2867
    169  CB         4.5870   16.3740    5.3650 C.3   286  VAL286      0.0252
    170  CG1        3.7660   17.1630    6.3320 C.3   286  VAL286      0.0019
    171  CG2        4.7470   17.1530    4.0560 C.3   286  VAL286      0.0019
@<TRIPOS>BOND
     1   102   103    1
     2   102   101    1
     3   103   105   am
     4   103   104    2
     5   101    98    1
     6   100    99    2
     7    99    98    1
     8    99   106   am
     9    98    97    1
    10    97    87   am
    11   106   107    1
    12   108   107    1
    13   108   109    2
    14   107   110    1
    15     7     6    1
    16     8     6    1
    17   111   110    1
    18    87    86    1
    19    87    88    2
    20   110   112    1
    21     6     5    1
    22    92    94   ar
    23    92    90   ar
    24   113   114    1
    25    86    89    1
    26    86    85    1
    27    94    95   ar
    28    89    90    1
    29    84    83    2
    30    90    91   ar
    31   116   115    2
    32   119   117    1
    33   114   117    1
    34   114   115    1
    35     5     2    1
    36    85    83   am
    37     1     2    1
    38   117   118    1
    39    83    82    1
    40    95    96    1
    41    95    93   ar
    42     2     3    1
    43    91    93   ar
    44    69    70    1
    45    69    66    1
    46   164   162    1
    47    68    67    2
    48    82    81    1
    49    70    71    1
    50    67    66    1
    51     3     4    2
    52    66    65    1
    53   171   169    1
    54   162   163    1
    55   162   159    1
    56   161   160    2
    57   168   167    2
    58    71    65    1
    59   167   166    1
    60    65    63   am
    61   160   159    1
    62    72    73    1
    63   159   158    1
    64   169   166    1
    65   169   170    1
    66   150   148    1
    67    73    74    1
    68   125   124    1
    69   166   165    1
    70    63    64    2
    71    63    62    1
    72   158   154   am
    73    56    55    2
    74   147   146    2
    75   148   149    1
    76   148   145    1
    77    59    58    1
    78   146   145    1
    79   120   121    1
    80    62    61    1
    81    74    76   am
    82    74    75    2
    83   155   154    2
    84   124   121    1
    85   124   126    1
    86   154   153    1
    87    57    58    1
    88    57    54    1
    89    55    61   am
    90    55    54    1
    91   149   151    1
    92   121   122    1
    93    76    77    1
    94   145   144    1
    95    58    60    1
    96    79    78    2
    97    54    53    1
    98   157   156    1
    99   153   152    1
   100   153   156    1
   101    77    78    1
   102    77    80    1
   103   122   123    2
   104    53    46   am
   105   131   128    1
   106    46    47    2
   107    46    45    1
   108   142   141    1
   109   128   127    1
   110   128   129    1
   111    45    48    1
   112    45    44    1
   113   129   130    2
   114   129   132   am
   115    48    49    1
   116   141   140    1
   117   141   143    1
   118   140   137    1
   119   132   133    1
   120    49    50    1
   121   137   136    1
   122   137   138    1
   123    50    51    1
   124    40    37    1
   125    40    41    1
   126   133   134    1
   127    38    37    1
   128    38    39    2
   129    37    36    1
   130    41    42   ar
   131    41    43   ar
   132   138   139    2
   133    51    52    1
   134   134   135    2
   135    35    33    1
   136    33    32    2
   137    33    34    1
   138    32    31    1
   139    23    22    2
   140    15    14   ar
   141    31    30    1
   142    16    14   ar
   143    14    13    1
   144    22    24   am
   145    22    21    1
   146    26    29    1
   147    26    27    1
   148    26    25    1
   149    18    17    1
   150    18    19    1
   151    18    21    1
   152    30    29    1
   153    27    28    2
   154    19    20    2
   155    13    10    1
   156    10    11    1
   157    10     9    1
   158    11    12    2
