@<TRIPOS>MOLECULE
tmp/2dcnB00.pdb
 151 140 0 0 0
SMALL
GASTEIGER

@<TRIPOS>ATOM
      1  N          5.0690   12.4930   27.1810 N.3     8  GLU8       -0.1245
      2  CA         5.8310   11.2750   27.0750 C.3     8  GLU8        0.1567
      3  C          6.6670   11.3240   25.8170 C.2     8  GLU8        0.2260
      4  O          6.1340   11.4920   24.7010 O.2     8  GLU8       -0.2867
      5  CB         4.9150   10.0420   27.0640 C.3     8  GLU8        0.0388
      6  CG         5.6780    8.7600   26.7680 C.3     8  GLU8        0.1160
      7  CD         4.8610    7.4930   26.9120 C.2     8  GLU8        0.3649
      8  OE1        3.6070    7.5430   26.8210 O.co2   8  GLU8       -0.2457
      9  OE2        5.5010    6.4350   27.0910 O.co2   8  GLU8       -0.2457
     10  N          8.6830    9.3790   23.1070 N.3    10  LEU10      -0.1245
     11  CA         8.6050    8.0550   22.4980 C.3    10  LEU10       0.1561
     12  C          9.7260    7.8210   21.5190 C.2    10  LEU10       0.2260
     13  O         10.1410    8.7320   20.8200 O.2    10  LEU10      -0.2867
     14  CB         7.2770    7.8780   21.7440 C.3    10  LEU10       0.0270
     15  CG         5.9690    7.9810   22.5260 C.3    10  LEU10       0.0019
     16  CD1        4.7890    7.9640   21.5690 C.3    10  LEU10       0.0001
     17  CD2        5.8450    6.8680   23.5690 C.3    10  LEU10       0.0001
     18  N         10.9310   11.0510   19.1070 N.3    32  ALA32      -0.1231
     19  CA         9.6910   11.7470   18.8630 C.3    32  ALA32       0.1694
     20  C          8.8580   11.8820   20.1550 C.2    32  ALA32       0.2593
     21  O          9.4010   11.8640   21.2630 O.2    32  ALA32      -0.2718
     22  CB         8.8960   11.0450   17.7330 C.3    32  ALA32       0.0304
     23  N          7.5500   12.0200   20.0060 N.am   33  GLY33      -0.1942
     24  CA         6.7030   12.3970   21.1120 C.3    33  GLY33       0.2014
     25  C          6.3410   13.8510   20.9160 C.2    33  GLY33       0.2639
     26  O          7.2220   14.6880   20.7290 O.2    33  GLY33      -0.2714
     27  N          5.0460   14.1460   20.9510 N.am   34  SER34      -0.1949
     28  CA         4.5320   15.4860   20.6480 C.3    34  SER34       0.1924
     29  C          5.2440   16.6590   21.3590 C.2    34  SER34       0.2314
     30  O          5.6500   17.6220   20.7140 O.2    34  SER34      -0.2863
     31  CB         3.0210   15.5650   20.9030 C.3    34  SER34       0.2116
     32  OG         2.5370   16.8230   20.4260 O.3    34  SER34      -0.2180
     33  N          6.8500    3.4600   19.4100 N.3    89  PHE89      -0.1241
     34  CA         5.7820    3.2790   18.4250 C.3    89  PHE89       0.1605
     35  C          6.3210    3.0260   17.0210 C.2    89  PHE89       0.2264
     36  O          7.4540    3.4070   16.7020 O.2    89  PHE89      -0.2867
     37  CB         4.7550    4.4370   18.4670 C.3    89  PHE89       0.0534
     38  CG         5.2460    5.7440   17.8720 C.ar   89  PHE89      -0.0203
     39  CD1        6.1550    6.5490   18.5670 C.ar   89  PHE89      -0.0042
     40  CD2        4.7550    6.1980   16.6430 C.ar   89  PHE89      -0.0042
     41  CE1        6.5910    7.7710   18.0300 C.ar   89  PHE89      -0.0003
     42  CE2        5.1730    7.4370   16.0970 C.ar   89  PHE89      -0.0003
     43  CZ         6.0870    8.2160   16.7790 C.ar   89  PHE89      -0.0000
     44  N          0.2410    5.4880   13.5460 N.3   103  SER103     -0.1217
     45  CA         1.1030    5.1470   14.6640 C.3   103  SER103      0.1889
     46  C          0.5750    3.9080   15.3860 C.2   103  SER103      0.2288
     47  O         -0.6330    3.7790   15.6440 O.2   103  SER103     -0.2866
     48  CB         1.2210    6.3460   15.6060 C.3   103  SER103      0.2089
     49  OG         1.7360    7.4770   14.8970 O.3   103  SER103     -0.2183
     50  N          1.2180    1.8080   18.7240 N.3   105  TYR105     -0.1241
     51  CA         1.8550    2.0400   20.0070 C.3   105  TYR105      0.1605
     52  C          2.2360    0.8070   20.8020 C.2   105  TYR105      0.2264
     53  O          1.4740   -0.1610   20.8730 O.2   105  TYR105     -0.2867
     54  CB         0.9650    2.9040   20.8880 C.3   105  TYR105      0.0534
     55  CG         0.5940    4.2170   20.2820 C.ar  105  TYR105     -0.0201
     56  CD1        1.5150    5.2640   20.2070 C.ar  105  TYR105     -0.0009
     57  CD2       -0.6890    4.4260   19.7960 C.ar  105  TYR105     -0.0009
     58  CE1        1.1650    6.4860   19.6350 C.ar  105  TYR105      0.0417
     59  CE2       -1.0590    5.6490   19.2410 C.ar  105  TYR105      0.0417
     60  CZ        -0.1310    6.6650   19.1700 C.ar  105  TYR105      0.1957
     61  OH        -0.5210    7.8590   18.6180 O.3   105  TYR105     -0.2866
     62  N          3.2630    1.4550   24.3550 N.3   107  ARG107     -0.1245
     63  CA         3.4930    2.4700   25.3900 C.3   107  ARG107      0.1563
     64  C          2.7150    2.1730   26.6820 C.2   107  ARG107      0.2260
     65  O          2.7230    2.9770   27.6230 O.2   107  ARG107     -0.2867
     66  CB         3.0990    3.8450   24.8480 C.3   107  ARG107      0.0307
     67  CG         1.6000    4.0210   24.6690 C.3   107  ARG107      0.0489
     68  CD         1.2340    5.2950   23.9090 C.3   107  ARG107      0.2205
     69  NE         1.8660    6.4890   24.4570 N.pl3 107  ARG107     -0.0865
     70  CZ         1.8340    7.6780   23.8660 C.cat 107  ARG107      0.5346
     71  NH1        1.1870    7.8190   22.7170 N.pl3 107  ARG107      0.1354
     72  NH2        2.4410    8.7250   24.4230 N.pl3 107  ARG107      0.1354
     73  N         -2.5690   13.8630   24.6190 N.3   136  ILE136     -0.1245
     74  CA        -1.8840   12.5960   24.7430 C.3   136  ILE136      0.1561
     75  C         -1.4990   12.4460   26.2170 C.2   136  ILE136      0.2260
     76  O         -1.6350   11.3620   26.8050 O.2   136  ILE136     -0.2867
     77  CB        -0.6250   12.5210   23.8380 C.3   136  ILE136      0.0252
     78  CG1       -0.9940   12.7220   22.3600 C.3   136  ILE136      0.0019
     79  CG2        0.1140   11.1890   24.0360 C.3   136  ILE136      0.0019
     80  CD1        0.1400   13.1990   21.5010 C.3   136  ILE136      0.0001
     81  N         -4.5210   17.2170   20.3720 N.3   163  ASN163     -0.1240
     82  CA        -3.8440   15.9430   20.0570 C.3   163  ASN163      0.1653
     83  C         -4.6500   14.7090   20.4510 C.2   163  ASN163      0.2266
     84  O         -4.1700   13.8620   21.2190 O.2   163  ASN163     -0.2867
     85  CB        -2.4600   15.8720   20.7290 C.3   163  ASN163      0.1155
     86  CG        -1.3210   16.3060   19.8090 C.2   163  ASN163      0.2627
     87  OD1       -1.4240   16.2530   18.5810 O.2   163  ASN163     -0.2716
     88  ND2       -0.2190   16.7450   20.4160 N.am  163  ASN163     -0.0877
     89  N         -5.9570   11.1560   20.3860 N.3   165  ARG165     -0.1245
     90  CA        -5.5770    9.8480   19.8630 C.3   165  ARG165      0.1563
     91  C         -6.6360    8.8470   20.3490 C.2   165  ARG165      0.2260
     92  O         -6.7310    8.5530   21.5540 O.2   165  ARG165     -0.2867
     93  CB        -4.1600    9.4310   20.3140 C.3   165  ARG165      0.0307
     94  CG        -3.0580   10.5050   20.2000 C.3   165  ARG165      0.0489
     95  CD        -2.2320   10.4890   18.8970 C.3   165  ARG165      0.2205
     96  NE        -2.5540   11.6340   18.0530 N.pl3 165  ARG165     -0.0865
     97  CZ        -1.7770   12.6890   17.7930 C.cat 165  ARG165      0.5346
     98  NH1       -0.5380   12.8160   18.2620 N.pl3 165  ARG165      0.1354
     99  NH2       -2.2740   13.6410   17.0180 N.pl3 165  ARG165      0.1354
    100  N         -5.7670   23.9010   12.7620 N.3   223  LYS223     -0.1245
    101  CA        -5.0270   23.3240   11.6300 C.3   223  LYS223      0.1561
    102  C         -5.9960   22.6200   10.7210 C.2   223  LYS223      0.2260
    103  O         -7.0310   22.1640   11.1770 O.2   223  LYS223     -0.2867
    104  CB        -3.9630   22.3460   12.1150 C.3   223  LYS223      0.0271
    105  CG        -2.8340   23.0150   12.8700 C.3   223  LYS223      0.0035
    106  CD        -1.7790   22.0100   13.2900 C.3   223  LYS223      0.0206
    107  CE        -1.8380   21.7650   14.7870 C.3   223  LYS223      0.1093
    108  NZ        -2.7950   20.7160   15.1680 N.3   223  LYS223     -0.1314
    109  N          3.7450   12.4490    7.1740 N.3   250  VAL250     -0.1231
    110  CA         3.1210   13.6100    7.8050 C.3   250  VAL250      0.1692
    111  C          3.2690   13.6010    9.3280 C.2   250  VAL250      0.2593
    112  O          2.9980   14.6160    9.9560 O.2   250  VAL250     -0.2718
    113  CB         1.6050   13.7400    7.4510 C.3   250  VAL250      0.0266
    114  CG1        1.3920   13.9360    5.9340 C.3   250  VAL250      0.0020
    115  CG2        0.7880   12.5370    8.0280 C.3   250  VAL250      0.0020
    116  N          3.6930   12.4750    9.9190 N.am  251  THR251     -0.1939
    117  CA         3.8190   12.3760   11.3830 C.3   251  THR251      0.2028
    118  C          4.7760   13.4350   11.9600 C.2   251  THR251      0.2643
    119  O          5.9400   13.5180   11.5710 O.2   251  THR251     -0.2714
    120  CB         4.2160   10.9390   11.8920 C.3   251  THR251      0.1808
    121  OG1        3.4170    9.9370   11.2460 O.3   251  THR251     -0.2208
    122  CG2        3.9870   10.8160   13.4070 C.3   251  THR251      0.0379
    123  N          4.2660   14.2380   12.8930 N.am  252  GLY252     -0.1939
    124  CA         5.0490   15.3020   13.4950 C.3   252  GLY252      0.2014
    125  C          4.7470   16.6960   12.9630 C.2   252  GLY252      0.2639
    126  O          5.1450   17.6780   13.5860 O.2   252  GLY252     -0.2714
    127  N          4.0460   16.7870   11.8270 N.am  253  ALA253     -0.1963
    128  CA         3.7710   18.0900   11.1850 C.3   253  ALA253      0.1728
    129  C          3.0140   19.0940   12.0950 C.2   253  ALA253      0.2617
    130  O          3.3360   20.2850   12.1070 O.2   253  ALA253     -0.2715
    131  CB         3.0510   17.9040    9.8630 C.3   253  ALA253      0.0334
    132  N          2.0390   18.5890   12.8560 N.am  254  GLY254     -0.1940
    133  CA         1.2510   19.3970   13.7860 C.3   254  GLY254      0.2014
    134  C          2.0880   20.0380   14.8680 C.2   254  GLY254      0.2638
    135  O          1.8680   21.2080   15.2250 O.2   254  GLY254     -0.2714
    136  N          3.0550   19.2780   15.3850 N.am  255  ASP255     -0.1971
    137  CA         3.9620   19.7720   16.4090 C.3   255  ASP255      0.1709
    138  C          4.9330   20.7780   15.8160 C.2   255  ASP255      0.2293
    139  O          5.2810   21.7600   16.4680 O.2   255  ASP255     -0.2864
    140  CB         4.7400   18.6370   17.0800 C.3   255  ASP255      0.1436
    141  CG         3.8460   17.5000   17.5830 C.2   255  ASP255      0.3671
    142  OD1        2.7640   17.7510   18.1760 O.co2 255  ASP255     -0.2456
    143  OD2        4.2520   16.3290   17.3750 O.co2 255  ASP255     -0.2456
    144  N         10.3310   13.1700   13.1350 N.3   291  ASP291     -0.1239
    145  CA         9.4510   14.2890   13.4900 C.3   291  ASP291      0.1674
    146  C         10.2840   15.5540   13.6870 C.2   291  ASP291      0.2266
    147  O          9.7600   16.6790   13.6340 O.2   291  ASP291     -0.2867
    148  CB         8.6800   13.9900   14.7680 C.3   291  ASP291      0.1410
    149  CG         7.7060   12.8100   14.6450 C.2   291  ASP291      0.3668
    150  OD1        7.8620   11.9110   13.7980 O.co2 291  ASP291     -0.2456
    151  OD2        6.7680   12.7620   15.4570 O.co2 291  ASP291     -0.2456
@<TRIPOS>BOND
     1   114   113    1
     2   109   110    1
     3   113   110    1
     4   113   115    1
     5   110   111    1
     6   111   116   am
     7   111   112    2
     8   131   128    1
     9   116   117    1
    10   102   103    2
    11   102   101    1
    12   128   127    1
    13   128   129    1
    14   121   120    1
    15   117   120    1
    16   117   118    1
    17   119   118    2
    18   101   104    1
    19   101   100    1
    20   127   125   am
    21   120   122    1
    22   118   123   am
    23   129   130    2
    24   129   132   am
    25   104   105    1
    26   132   133    1
    27   105   106    1
    28   123   124    1
    29   125   124    1
    30   125   126    2
    31   144   145    1
    32   106   107    1
    33   145   146    1
    34   145   148    1
    35    44    45    1
    36   147   146    2
    37   133   134    1
    38   150   149   ar
    39   149   148    1
    40   149   151   ar
    41    45    46    1
    42    45    48    1
    43   107   108    1
    44   134   135    2
    45   134   136   am
    46    49    48    1
    47   136   137    1
    48    46    47    2
    49   138   137    1
    50   138   139    2
    51    42    40   ar
    52    42    43   ar
    53   137   140    1
    54    40    38   ar
    55    36    35    2
    56    43    41   ar
    57    99    97    1
    58    35    34    1
    59   140   141    1
    60   143   141   ar
    61   141   142   ar
    62    22    19    1
    63    97    96    2
    64    97    98    1
    65    38    37    1
    66    38    39   ar
    67    41    39   ar
    68    96    95    1
    69    34    37    1
    70    34    33    1
    71    87    86    2
    72    61    60    1
    73    50    51    1
    74    19    18    1
    75    19    20    1
    76    95    94    1
    77    60    59   ar
    78    60    58   ar
    79    59    57   ar
    80    58    56   ar
    81    57    55   ar
    82    86    88   am
    83    86    85    1
    84    90    93    1
    85    90    91    1
    86    90    89    1
    87    23    20   am
    88    23    24    1
    89    51    52    1
    90    51    54    1
    91    82    81    1
    92    82    83    1
    93    82    85    1
    94    20    21    2
    95    94    93    1
    96    56    55   ar
    97    55    54    1
    98    91    92    2
    99    32    31    1
   100    83    84    2
   101    28    31    1
   102    28    27    1
   103    28    29    1
   104    30    29    2
   105    26    25    2
   106    52    53    2
   107    13    12    2
   108    25    27   am
   109    25    24    1
   110    80    78    1
   111    12    11    1
   112    16    15    1
   113    14    11    1
   114    14    15    1
   115    78    77    1
   116    11    10    1
   117    15    17    1
   118    71    70    1
   119    77    79    1
   120    77    74    1
   121    70    72    1
   122    70    69    2
   123    68    69    1
   124    68    67    1
   125    62    63    1
   126    73    74    1
   127    67    66    1
   128     4     3    2
   129    74    75    1
   130    66    63    1
   131    63    64    1
   132     3     2    1
   133    75    76    2
   134    64    65    2
   135     6     7    1
   136     6     5    1
   137     8     7   ar
   138     7     9   ar
   139     5     2    1
   140     2     1    1
