@<TRIPOS>MOLECULE
tmp/2dcuA00.pdb
 122 119 0 0 0
SMALL
GASTEIGER

@<TRIPOS>ATOM
      1  N         35.4410   42.1950  -11.5140 N.3    14  HIS14      -0.1226
      2  CA        36.8370   42.3420  -11.9070 C.3    14  HIS14       0.1752
      3  C         37.6090   43.1810  -10.9000 C.2    14  HIS14       0.2596
      4  O         37.0240   43.7700   -9.9940 O.2    14  HIS14      -0.2718
      5  CB        36.9540   42.9480  -13.3120 C.3    14  HIS14       0.0759
      6  CG        38.3270   42.8400  -13.8940 C.ar   14  HIS14       0.0818
      7  ND1       39.1820   43.9160  -13.9970 N.ar   14  HIS14      -0.2268
      8  CD2       39.0120   41.7690  -14.3600 C.ar   14  HIS14       0.1154
      9  CE1       40.3340   43.5120  -14.5000 C.ar   14  HIS14       0.1986
     10  NE2       40.2580   42.2130  -14.7290 N.ar   14  HIS14      -0.2212
     11  N         38.9230   43.2430  -11.0740 N.am   15  VAL15      -0.1966
     12  CA        39.7660   43.9860  -10.1510 C.3    15  VAL15       0.1727
     13  C         39.8390   45.4880  -10.4140 C.2    15  VAL15       0.2616
     14  O         40.6780   46.1710   -9.8370 O.2    15  VAL15      -0.2715
     15  CB        41.2050   43.3940  -10.1190 C.3    15  VAL15       0.0290
     16  CG1       42.1580   44.2330  -10.9660 C.3    15  VAL15       0.0023
     17  CG2       41.6860   43.2810   -8.6760 C.3    15  VAL15       0.0023
     18  N         38.9700   46.0120  -11.2740 N.am   16  ASP16      -0.1971
     19  CA        38.9780   47.4490  -11.5480 C.3    16  ASP16       0.1709
     20  C         37.6480   48.0630  -11.9450 C.2    16  ASP16       0.2293
     21  O         37.5530   49.2770  -12.1120 O.2    16  ASP16      -0.2864
     22  CB        40.0140   47.7900  -12.6170 C.3    16  ASP16       0.1436
     23  CG        41.3850   48.0260  -12.0350 C.2    16  ASP16       0.3671
     24  OD1       41.5150   48.9120  -11.1610 O.co2  16  ASP16      -0.2456
     25  OD2       42.3340   47.3310  -12.4540 O.co2  16  ASP16      -0.2456
     26  N         35.2780   48.6630  -10.2170 N.3    18  GLY18      -0.1210
     27  CA        34.7930   49.5570   -9.1770 C.3    18  GLY18       0.1956
     28  C         34.1440   49.0110   -7.9180 C.2    18  GLY18       0.2612
     29  O         33.3620   49.7200   -7.2850 O.2    18  GLY18      -0.2717
     30  N         34.4620   47.7800   -7.5270 N.am   19  LYS19      -0.1965
     31  CA        33.8570   47.2140   -6.3230 C.3    19  LYS19       0.1728
     32  C         34.1760   48.0140   -5.0630 C.2    19  LYS19       0.2617
     33  O         33.2830   48.3170   -4.2710 O.2    19  LYS19      -0.2715
     34  CB        34.2910   45.7570   -6.1280 C.3    19  LYS19       0.0311
     35  CG        35.4360   45.3110   -7.0040 C.3    19  LYS19       0.0038
     36  CD        35.8330   43.8700   -6.7350 C.3    19  LYS19       0.0206
     37  CE        36.4850   43.6990   -5.3620 C.3    19  LYS19       0.1093
     38  NZ        35.5640   43.9330   -4.2090 N.3    19  LYS19      -0.1314
     39  N         35.4440   48.3670   -4.8860 N.am   20  THR20      -0.1937
     40  CA        35.8750   49.1160   -3.7100 C.3    20  THR20       0.2028
     41  C         35.3280   50.5410   -3.6150 C.2    20  THR20       0.2642
     42  O         35.1260   51.0570   -2.5180 O.2    20  THR20      -0.2714
     43  CB        37.4120   49.1770   -3.6340 C.3    20  THR20       0.1808
     44  OG1       37.9410   47.8460   -3.5640 O.3    20  THR20      -0.2208
     45  CG2       37.8510   49.9520   -2.4040 C.3    20  THR20       0.0379
     46  N         35.0990   51.1800   -4.7570 N.am   21  THR21      -0.1950
     47  CA        34.5710   52.5400   -4.7690 C.3    21  THR21       0.1897
     48  C         33.1390   52.5480   -4.2520 C.2    21  THR21       0.2313
     49  O         32.7910   53.3120   -3.3490 O.2    21  THR21      -0.2863
     50  CB        34.5700   53.1290   -6.1950 C.3    21  THR21       0.1794
     51  OG1       35.9170   53.2660   -6.6620 O.3    21  THR21      -0.2208
     52  CG2       33.8960   54.4920   -6.2110 C.3    21  THR21       0.0378
     53  N         40.5930   43.6450   -1.6880 N.3    87  PRO87      -0.2116
     54  CA        41.5080   43.9650   -2.7850 C.3    87  PRO87       0.1372
     55  C         42.3960   42.7450   -2.9640 C.2    87  PRO87       0.2244
     56  O         43.0920   42.3360   -2.0350 O.2    87  PRO87      -0.2868
     57  CB        42.2780   45.1690   -2.2530 C.3    87  PRO87       0.0268
     58  CG        41.2800   45.8240   -1.3490 C.3    87  PRO87       0.0207
     59  CD        40.7090   44.6370   -0.6120 C.3    87  PRO87       0.0892
     60  N         28.4440   49.1350  -13.8760 N.3   141  ASN141     -0.1225
     61  CA        28.9310   50.4350  -13.4420 C.3   141  ASN141      0.1785
     62  C         29.6160   51.2540  -14.5260 C.2   141  ASN141      0.2597
     63  O         29.8710   50.7710  -15.6290 O.2   141  ASN141     -0.2718
     64  CB        29.8780   50.2590  -12.2530 C.3   141  ASN141      0.1169
     65  CG        30.1340   51.5570  -11.5130 C.2   141  ASN141      0.2627
     66  OD1       29.4350   52.5470  -11.7160 O.2   141  ASN141     -0.2716
     67  ND2       31.1240   51.5510  -10.6320 N.am  141  ASN141     -0.0877
     68  N         29.9120   52.5020  -14.1820 N.am  142  LYS142     -0.1980
     69  CA        30.5600   53.4360  -15.0850 C.3   142  LYS142      0.1596
     70  C         29.6990   53.6770  -16.3170 C.2   142  LYS142      0.2287
     71  O         30.2180   53.8180  -17.4260 O.2   142  LYS142     -0.2864
     72  CB        31.9250   52.9080  -15.5230 C.3   142  LYS142      0.0298
     73  CG        32.8620   52.5310  -14.3980 C.3   142  LYS142      0.0038
     74  CD        34.2510   52.2800  -14.9590 C.3   142  LYS142      0.0206
     75  CE        35.1900   51.6720  -13.9350 C.3   142  LYS142      0.1093
     76  NZ        36.5710   51.5590  -14.4830 N.3   142  LYS142     -0.1314
     77  N         28.3000   56.2360  -17.1210 N.3   144  GLU144     -0.1231
     78  CA        28.5880   57.5670  -17.6420 C.3   144  GLU144      0.1699
     79  C         29.7290   57.5720  -18.6460 C.2   144  GLU144      0.2592
     80  O         30.0570   58.6140  -19.2060 O.2   144  GLU144     -0.2718
     81  CB        28.9200   58.5310  -16.4970 C.3   144  GLU144      0.0402
     82  CG        30.1860   58.2150  -15.7360 C.3   144  GLU144      0.1161
     83  CD        30.2280   56.7850  -15.2560 C.2   144  GLU144      0.3649
     84  OE1       29.4010   56.4100  -14.3990 O.co2 144  GLU144     -0.2457
     85  OE2       31.0910   56.0350  -15.7510 O.co2 144  GLU144     -0.2457
     86  N         30.3260   56.4120  -18.8870 N.am  145  LEU145     -0.1980
     87  CA        31.4440   56.3370  -19.8170 C.3   145  LEU145      0.1596
     88  C         31.1350   55.7110  -21.1760 C.2   145  LEU145      0.2287
     89  O         31.9790   55.7300  -22.0740 O.2   145  LEU145     -0.2864
     90  CB        32.6150   55.6050  -19.1520 C.3   145  LEU145      0.0297
     91  CG        33.7340   56.4870  -18.5850 C.3   145  LEU145      0.0022
     92  CD1       33.1600   57.6380  -17.7750 C.3   145  LEU145      0.0001
     93  CD2       34.6580   55.6340  -17.7350 C.3   145  LEU145      0.0001
     94  N         26.4150   54.4250  -11.5040 N.3   176  SER176     -0.1202
     95  CA        27.6290   55.2170  -11.5060 C.3   176  SER176      0.2020
     96  C         28.1010   55.3670  -10.0730 C.2   176  SER176      0.2619
     97  O         27.7000   56.2950   -9.3750 O.2   176  SER176     -0.2717
     98  CB        27.3770   56.6030  -12.0850 C.3   176  SER176      0.2103
     99  OG        28.5050   57.4310  -11.8680 O.3   176  SER176     -0.2182
    100  N         28.9460   54.4450   -9.6330 N.am  177  ALA177     -0.1965
    101  CA        29.4690   54.4940   -8.2770 C.3   177  ALA177      0.1728
    102  C         30.1350   55.8430   -8.0050 C.2   177  ALA177      0.2616
    103  O         30.2230   56.2780   -6.8590 O.2   177  ALA177     -0.2715
    104  CB        30.4660   53.3650   -8.0700 C.3   177  ALA177      0.0334
    105  N         30.5910   56.5040   -9.0660 N.am  178  LEU178     -0.1963
    106  CA        31.2640   57.7950   -8.9390 C.3   178  LEU178      0.1728
    107  C         30.2950   58.9440   -8.6860 C.2   178  LEU178      0.2616
    108  O         30.4780   59.7100   -7.7430 O.2   178  LEU178     -0.2715
    109  CB        32.0930   58.0930  -10.1980 C.3   178  LEU178      0.0311
    110  CG        33.0690   59.2750  -10.2490 C.3   178  LEU178      0.0022
    111  CD1       34.0390   59.1850   -9.0920 C.3   178  LEU178      0.0001
    112  CD2       33.8350   59.2720  -11.5640 C.3   178  LEU178      0.0001
    113  N         29.2640   59.0640   -9.5170 N.am  179  HIS179     -0.1973
    114  CA        28.2950   60.1480   -9.3620 C.3   179  HIS179      0.1656
    115  C         27.0520   59.7490   -8.5740 C.2   179  HIS179      0.2291
    116  O         26.3190   60.6120   -8.0940 O.2   179  HIS179     -0.2864
    117  CB        27.8780   60.6790  -10.7330 C.3   179  HIS179      0.0771
    118  CG        29.0300   61.0610  -11.6090 C.ar  179  HIS179      0.0820
    119  ND1       29.8960   62.0880  -11.3000 N.ar  179  HIS179     -0.2267
    120  CD2       29.4650   60.5420  -12.7820 C.ar  179  HIS179      0.1154
    121  CE1       30.8150   62.1840  -12.2450 C.ar  179  HIS179      0.1986
    122  NE2       30.5750   61.2570  -13.1550 N.ar  179  HIS179     -0.2212
@<TRIPOS>BOND
     1    89    88    2
     2    88    87    1
     3    87    90    1
     4    87    86    1
     5    80    79    2
     6    90    91    1
     7    86    79   am
     8    79    78    1
     9    91    92    1
    10    91    93    1
    11    78    77    1
    12    78    81    1
    13    71    70    2
    14    81    82    1
    15    70    69    1
    16    85    83   ar
    17    82    83    1
    18    63    62    2
    19    72    69    1
    20    72    73    1
    21    83    84   ar
    22    69    68    1
    23    74    73    1
    24    74    75    1
    25    10     9   ar
    26    10     8   ar
    27    62    68   am
    28    62    61    1
    29     9     7   ar
    30    76    75    1
    31     8     6   ar
    32     7     6   ar
    33     6     5    1
    34    60    61    1
    35    61    64    1
    36     5     2    1
    37   122   120   ar
    38   122   121   ar
    39   120   118   ar
    40    22    23    1
    41    22    19    1
    42    25    23   ar
    43    64    65    1
    44   121   119   ar
    45    21    20    2
    46    98    99    1
    47    98    95    1
    48    23    24   ar
    49    20    19    1
    50     2     1    1
    51     2     3    1
    52    66    65    2
    53   118   119   ar
    54   118   117    1
    55   112   110    1
    56    19    18    1
    57    65    67   am
    58    95    94    1
    59    95    96    1
    60    18    13   am
    61    11     3   am
    62    11    12    1
    63    16    15    1
    64     3     4    2
    65   117   114    1
    66    13    12    1
    67    13    14    2
    68   110   109    1
    69   110   111    1
    70    26    27    1
    71   109   106    1
    72    12    15    1
    73    15    17    1
    74    96   100   am
    75    96    97    2
    76   100   101    1
    77   113   114    1
    78   113   107   am
    79   114   115    1
    80    27    28    1
    81   105   106    1
    82   105   102   am
    83   106   107    1
    84   107   108    2
    85   115   116    2
    86   101   104    1
    87   101   102    1
    88   102   103    2
    89    28    30   am
    90    28    29    2
    91    30    31    1
    92    35    36    1
    93    35    34    1
    94    36    37    1
    95    51    50    1
    96    31    34    1
    97    31    32    1
    98    52    50    1
    99    50    47    1
   100    37    38    1
   101    32    39   am
   102    32    33    2
   103    39    40    1
   104    47    46    1
   105    47    48    1
   106    46    41   am
   107    48    49    2
   108    40    43    1
   109    40    41    1
   110    43    44    1
   111    43    45    1
   112    41    42    2
   113    55    54    1
   114    55    56    2
   115    54    57    1
   116    54    53    1
   117    57    58    1
   118    53    59    1
   119    58    59    1
