@<TRIPOS>MOLECULE
tmp/2dcyA03.pdb
 84 85 0 0 0
SMALL
GASTEIGER

@<TRIPOS>ATOM
      1  N         29.9160   23.7850   -2.0850 N.3    58  TRP58      -0.1227
      2  CA        30.3620   23.7980   -0.6660 C.3    58  TRP58       0.1737
      3  C         31.1680   22.5390   -0.5050 C.2    58  TRP58       0.2595
      4  O         30.6540   21.4620   -0.1320 O.2    58  TRP58      -0.2718
      5  CB        29.1630   23.9160    0.3000 C.3    58  TRP58       0.0564
      6  CG        29.6420   23.7770    1.7210 C.ar   58  TRP58       0.0003
      7  CD1       29.1990   22.8920    2.6600 C.ar   58  TRP58       0.0946
      8  CD2       30.7220   24.4940    2.3200 C.ar   58  TRP58       0.0152
      9  NE1       29.9430   23.0340    3.8160 N.ar   58  TRP58      -0.2442
     10  CE2       30.8970   23.9860    3.6210 C.ar   58  TRP58       0.0810
     11  CE3       31.5510   25.5450    1.8730 C.ar   58  TRP58       0.0012
     12  CZ2       31.8630   24.4800    4.4950 C.ar   58  TRP58       0.0191
     13  CZ3       32.5190   26.0550    2.7520 C.ar   58  TRP58       0.0001
     14  CH2       32.6920   25.4800    4.0500 C.ar   58  TRP58       0.0015
     15  N         32.4680   22.6450   -0.8070 N.am   59  ALA59      -0.1966
     16  CA        33.3210   21.4530   -0.8950 C.3    59  ALA59       0.1713
     17  C         34.5850   21.6470   -0.0560 C.2    59  ALA59       0.2458
     18  O         35.6990   21.6140   -0.5540 O.2    59  ALA59      -0.2730
     19  CB        33.6560   21.1430   -2.3760 C.3    59  ALA59       0.0333
     20  N         34.4310   21.7350    1.2540 N.am   60  PRO60      -0.2727
     21  CA        35.6110   21.7120    2.1530 C.3    60  PRO60       0.1402
     22  C         36.2260   20.3140    2.1050 C.2    60  PRO60       0.2269
     23  O         35.5190   19.3190    2.0890 O.2    60  PRO60      -0.2865
     24  CB        35.0050   22.0060    3.5450 C.3    60  PRO60       0.0296
     25  CG        33.5920   21.4410    3.4220 C.3    60  PRO60       0.0237
     26  CD        33.1610   21.7880    2.0240 C.3    60  PRO60       0.0939
     27  N         26.8030   24.9310    7.6890 N.3    84  SER84      -0.1202
     28  CA        27.4200   23.6810    7.2680 C.3    84  SER84       0.2020
     29  C         28.9020   23.7740    7.5680 C.2    84  SER84       0.2619
     30  O         29.4170   24.8170    7.9930 O.2    84  SER84      -0.2717
     31  CB        27.1800   23.3760    5.7690 C.3    84  SER84       0.2103
     32  OG        27.6720   22.0630    5.4930 O.3    84  SER84      -0.2182
     33  N         29.5750   22.6200    7.4220 N.am   85  TRP85      -0.1961
     34  CA        30.9770   22.4820    7.8440 C.3    85  TRP85       0.1771
     35  C         31.5630   21.3210    7.0460 C.2    85  TRP85       0.2620
     36  O         30.8650   20.7080    6.2090 O.2    85  TRP85      -0.2715
     37  CB        31.1310   22.3030    9.3870 C.3    85  TRP85       0.0590
     38  CG        30.3040   21.1360    9.9050 C.ar   85  TRP85       0.0006
     39  CD1       30.7230   19.8490   10.0170 C.ar   85  TRP85       0.0946
     40  CD2       28.9330   21.1810   10.3500 C.ar   85  TRP85       0.0152
     41  NE1       29.7000   19.0620   10.4940 N.ar   85  TRP85      -0.2442
     42  CE2       28.5760   19.8510   10.6940 C.ar   85  TRP85       0.0810
     43  CE3       27.9520   22.1970   10.4440 C.ar   85  TRP85       0.0012
     44  CZ2       27.2820   19.5140   11.1720 C.ar   85  TRP85       0.0191
     45  CZ3       26.6710   21.8360   10.9320 C.ar   85  TRP85       0.0001
     46  CH2       26.3590   20.5120   11.2380 C.ar   85  TRP85       0.0015
     47  N         32.8260   21.0300    7.3500 N.am   86  GLY86      -0.1940
     48  CA        33.5100   19.9150    6.7100 C.3    86  GLY86       0.2014
     49  C         33.6220   18.7350    7.6610 C.2    86  GLY86       0.2639
     50  O         32.6160   18.1310    8.0520 O.2    86  GLY86      -0.2714
     51  N         34.8710   18.4230    8.0460 N.am   87  THR87      -0.1950
     52  CA        35.0640   17.3200    8.9840 C.3    87  THR87       0.1897
     53  C         34.9010   17.6700   10.4760 C.2    87  THR87       0.2313
     54  O         34.9020   16.7720   11.3110 O.2    87  THR87      -0.2863
     55  CB        36.4790   16.7620    8.8270 C.3    87  THR87       0.1794
     56  OG1       37.4130   17.8250    8.9300 O.3    87  THR87      -0.2208
     57  CG2       36.6780   16.0870    7.4550 C.3    87  THR87       0.0378
     58  N         24.1300   19.2920    8.7650 N.3   135  LYS135     -0.1231
     59  CA        24.6270   20.1620    7.6860 C.3   135  LYS135      0.1693
     60  C         23.4410   20.5880    6.8140 C.2   135  LYS135      0.2591
     61  O         22.6790   19.7140    6.3470 O.2   135  LYS135     -0.2718
     62  CB        25.6550   19.4180    6.8280 C.3   135  LYS135      0.0285
     63  CG        26.9570   19.0930    7.5660 C.3   135  LYS135      0.0035
     64  CD        27.8500   18.3680    6.6220 C.3   135  LYS135      0.0206
     65  CE        29.1340   17.9910    7.3190 C.3   135  LYS135      0.1093
     66  NZ        29.8570   16.9690    6.4760 N.3   135  LYS135     -0.1314
     67  N         23.3060   21.9020    6.5660 N.am  136  ARG136     -0.1980
     68  CA        22.2040   22.3990    5.7630 C.3   136  ARG136      0.1597
     69  C         22.3990   22.0040    4.2970 C.2   136  ARG136      0.2287
     70  O         23.5150   22.0960    3.7740 O.2   136  ARG136     -0.2864
     71  CB        22.1280   23.9100    5.8900 C.3   136  ARG136      0.0334
     72  CG        20.7870   24.5000    5.3960 C.3   136  ARG136      0.0492
     73  CD        20.7230   25.9760    5.7420 C.3   136  ARG136      0.2205
     74  NE        19.4070   26.4900    5.3520 N.pl3 136  ARG136     -0.0865
     75  CZ        18.9340   27.6880    5.7200 C.cat 136  ARG136      0.5346
     76  NH1       19.6290   28.5080    6.4800 N.pl3 136  ARG136      0.1354
     77  NH2       17.6910   28.0350    5.3630 N.pl3 136  ARG136      0.1354
     78  N         22.8470   22.4510    0.4410 N.3   138  THR138     -0.1218
     79  CA        23.3480   23.5470   -0.3580 C.3   138  THR138      0.1862
     80  C         22.8600   23.4510   -1.7980 C.2   138  THR138      0.2287
     81  O         22.4030   22.4230   -2.2610 O.2   138  THR138     -0.2866
     82  CB        24.8720   23.6910   -0.3210 C.3   138  THR138      0.1770
     83  OG1       25.5110   22.5570   -0.9370 O.3   138  THR138     -0.2211
     84  CG2       25.3930   23.8160    1.1460 C.3   138  THR138      0.0375
@<TRIPOS>BOND
     1    19    16    1
     2    81    80    2
     3     1     2    1
     4    80    79    1
     5    83    82    1
     6    16    15    1
     7    16    17    1
     8    15     3   am
     9     2     3    1
    10     2     5    1
    11    18    17    2
    12     3     4    2
    13    79    82    1
    14    79    78    1
    15    82    84    1
    16    17    20   am
    17     5     6    1
    18    20    26    1
    19    20    21    1
    20     6     8   ar
    21     6     7   ar
    22    11     8   ar
    23    11    13   ar
    24    26    25    1
    25    23    22    2
    26    22    21    1
    27    21    24    1
    28     8    10   ar
    29     7     9   ar
    30    13    14   ar
    31    25    24    1
    32    10     9   ar
    33    10    12   ar
    34    70    69    2
    35    14    12   ar
    36    69    68    1
    37    74    75    2
    38    74    73    1
    39    77    75    1
    40    72    73    1
    41    72    71    1
    42    32    31    1
    43    75    76    1
    44    68    71    1
    45    68    67    1
    46    31    28    1
    47    36    35    2
    48    61    60    2
    49    66    65    1
    50    67    60   am
    51    64    65    1
    52    64    63    1
    53    48    47    1
    54    48    49    1
    55    60    59    1
    56    62    63    1
    57    62    59    1
    58    35    47   am
    59    35    34    1
    60    28    29    1
    61    28    27    1
    62    33    29   am
    63    33    34    1
    64    57    55    1
    65    29    30    2
    66    49    51   am
    67    49    50    2
    68    59    58    1
    69    34    37    1
    70    51    52    1
    71    55    56    1
    72    55    52    1
    73    52    53    1
    74    37    38    1
    75    38    39   ar
    76    38    40   ar
    77    39    41   ar
    78    40    43   ar
    79    40    42   ar
    80    43    45   ar
    81    53    54    2
    82    41    42   ar
    83    42    44   ar
    84    45    46   ar
    85    44    46   ar
