@<TRIPOS>MOLECULE
tmp/2dcyC00.pdb
 82 82 0 0 0
SMALL
GASTEIGER

@<TRIPOS>ATOM
      1  N         84.0370   41.3580   40.8790 N.3     2  SER2       -0.1202
      2  CA        83.4310   42.6710   40.7330 C.3     2  SER2        0.2020
      3  C         83.0640   42.8880   39.2510 C.2     2  SER2        0.2619
      4  O         83.7050   42.2900   38.3840 O.2     2  SER2       -0.2717
      5  CB        84.3470   43.8050   41.2110 C.3     2  SER2        0.2103
      6  OG        85.4930   43.8790   40.3920 O.3     2  SER2       -0.2182
      7  N         82.0470   43.6940   39.0270 N.am    3  THR3       -0.1938
      8  CA        81.6260   44.0110   37.6770 C.3     3  THR3        0.2028
      9  C         82.3110   45.3190   37.2840 C.2     3  THR3        0.2642
     10  O         82.7020   46.1200   38.1670 O.2     3  THR3       -0.2714
     11  CB        80.1020   44.1240   37.5900 C.3     3  THR3        0.1808
     12  OG1       79.5890   44.9650   38.6490 O.3     3  THR3       -0.2208
     13  CG2       79.4200   42.7240   37.8030 C.3     3  THR3        0.0379
     14  N         82.4070   45.5720   35.9910 N.am    4  ASP4       -0.1957
     15  CA        83.0330   46.8390   35.5510 C.3     4  ASP4        0.1840
     16  C         82.2700   47.4740   34.4300 C.2     4  ASP4        0.2622
     17  O         82.7380   48.4430   33.8240 O.2     4  ASP4       -0.2715
     18  CB        84.5410   46.6680   35.2030 C.3     4  ASP4        0.1450
     19  CG        84.7760   45.9880   33.8750 C.2     4  ASP4        0.3671
     20  OD1       83.8320   45.3390   33.3670 O.co2   4  ASP4       -0.2456
     21  OD2       85.8410   46.0250   33.2470 O.co2   4  ASP4       -0.2456
     22  N         81.0770   46.9580   34.1580 N.am    5  TYR5       -0.1960
     23  CA        80.2730   47.4740   33.0870 C.3     5  TYR5        0.1771
     24  C         78.7880   47.6040   33.3980 C.2     5  TYR5        0.2619
     25  O         78.1900   46.6560   33.9520 O.2     5  TYR5       -0.2715
     26  CB        80.5010   46.6840   31.7620 C.3     5  TYR5        0.0574
     27  CG        79.7650   47.2370   30.5920 C.ar    5  TYR5       -0.0198
     28  CD1       80.1400   48.4650   29.9970 C.ar    5  TYR5       -0.0009
     29  CD2       78.6660   46.5510   30.0190 C.ar    5  TYR5       -0.0009
     30  CE1       79.4590   48.9780   28.8860 C.ar    5  TYR5        0.0417
     31  CE2       77.9690   47.1020   28.9380 C.ar    5  TYR5        0.0417
     32  CZ        78.3510   48.3110   28.3770 C.ar    5  TYR5        0.1957
     33  OH        77.6530   48.8310   27.3650 O.3     5  TYR5       -0.2866
     34  N         78.1900   48.7100   32.9780 N.am    6  TRP6       -0.1974
     35  CA        76.7700   48.9860   33.1140 C.3     6  TRP6        0.1640
     36  C         76.1780   49.1590   31.7280 C.2     6  TRP6        0.2290
     37  O         76.5840   50.0390   30.9500 O.2     6  TRP6       -0.2864
     38  CB        76.6000   50.2700   33.9260 C.3     6  TRP6        0.0576
     39  CG        75.2410   50.9000   33.9670 C.ar    6  TRP6        0.0006
     40  CD1       74.9370   52.2090   33.6400 C.ar    6  TRP6        0.0946
     41  CD2       74.0250   50.3300   34.4590 C.ar    6  TRP6        0.0152
     42  NE1       73.6100   52.4560   33.8920 N.ar    6  TRP6       -0.2442
     43  CE2       73.0280   51.3110   34.3760 C.ar    6  TRP6        0.0810
     44  CE3       73.6750   49.0580   34.9400 C.ar    6  TRP6        0.0012
     45  CZ2       71.6950   51.0840   34.8040 C.ar    6  TRP6        0.0191
     46  CZ3       72.3410   48.8270   35.3180 C.ar    6  TRP6        0.0001
     47  CH2       71.3920   49.8430   35.2720 C.ar    6  TRP6        0.0015
     48  N         71.4070   52.0000   38.6010 N.3    20  ASN20      -0.1225
     49  CA        72.7230   51.4560   38.7670 C.3    20  ASN20       0.1785
     50  C         73.0870   51.4230   40.2610 C.2    20  ASN20       0.2598
     51  O         73.5310   52.4160   40.8610 O.2    20  ASN20      -0.2718
     52  CB        73.7040   52.3170   37.9720 C.3    20  ASN20       0.1169
     53  CG        75.0980   51.8080   38.0150 C.2    20  ASN20       0.2627
     54  OD1       75.5120   51.0620   38.8940 O.2    20  ASN20      -0.2716
     55  ND2       75.9010   52.3080   37.0860 N.am   20  ASN20      -0.0877
     56  N         72.9390   50.2520   40.8800 N.am   21  GLY21      -0.1942
     57  CA        73.1980   50.1200   42.3180 C.3    21  GLY21       0.2014
     58  C         74.6550   49.7930   42.6150 C.2    21  GLY21       0.2640
     59  O         75.5280   50.0540   41.7730 O.2    21  GLY21      -0.2714
     60  N         74.9600   49.2680   43.8040 N.am   22  SER22      -0.1935
     61  CA        76.3410   48.8690   44.1310 C.3    22  SER22       0.2055
     62  C         76.5440   47.3760   44.1850 C.2    22  SER22       0.2644
     63  O         75.5490   46.6450   44.1410 O.2    22  SER22      -0.2714
     64  CB        76.7760   49.5040   45.4630 C.3    22  SER22       0.2130
     65  OG        75.8960   49.1400   46.5130 O.3    22  SER22      -0.2179
     66  N         77.8030   46.9150   44.2000 N.am   23  GLY23      -0.1939
     67  CA        78.1100   45.5000   44.4100 C.3    23  GLY23       0.2014
     68  C         77.4830   44.5510   43.3840 C.2    23  GLY23       0.2639
     69  O         77.0370   43.4270   43.7470 O.2    23  GLY23      -0.2714
     70  N         77.4950   44.9800   42.1230 N.am   24  GLY24      -0.1954
     71  CA        76.9390   44.2130   41.0150 C.3    24  GLY24       0.1869
     72  C         75.4330   44.2780   40.8910 C.2    24  GLY24       0.2309
     73  O         74.8690   43.5740   40.0430 O.2    24  GLY24      -0.2863
     74  N         74.2690   44.3980   34.2450 N.3    40  LYS40      -0.1245
     75  CA        75.6130   44.6350   34.7710 C.3    40  LYS40       0.1561
     76  C         76.4960   43.4610   34.4460 C.2    40  LYS40       0.2260
     77  O         76.0410   42.3060   34.3600 O.2    40  LYS40      -0.2867
     78  CB        75.5970   44.8370   36.2910 C.3    40  LYS40       0.0271
     79  CG        75.1790   46.1910   36.6900 C.3    40  LYS40       0.0035
     80  CD        75.6540   46.4940   38.0780 C.3    40  LYS40       0.0206
     81  CE        75.6230   48.0140   38.2520 C.3    40  LYS40       0.1093
     82  NZ        75.7720   48.3980   39.6540 N.3    40  LYS40      -0.1314
@<TRIPOS>BOND
     1    33    32    1
     2    32    30   ar
     3    32    31   ar
     4    30    28   ar
     5    31    29   ar
     6    28    27   ar
     7    29    27   ar
     8    27    26    1
     9    37    36    2
    10    36    35    1
    11    26    23    1
    12    34    35    1
    13    34    24   am
    14    23    24    1
    15    23    22    1
    16    35    38    1
    17    21    19   ar
    18    20    19   ar
    19    24    25    2
    20    40    42   ar
    21    40    39   ar
    22    17    16    2
    23    19    18    1
    24    42    43   ar
    25    38    39    1
    26    39    41   ar
    27    22    16   am
    28    74    75    1
    29    77    76    2
    30    43    41   ar
    31    43    45   ar
    32    16    15    1
    33    76    75    1
    34    41    44   ar
    35    75    78    1
    36    45    47   ar
    37    44    46   ar
    38    18    15    1
    39    47    46   ar
    40    15    14    1
    41    14     9   am
    42    78    79    1
    43    79    80    1
    44    55    53   am
    45     9     8    1
    46     9    10    2
    47    11     8    1
    48    11    13    1
    49    11    12    1
    50     8     7    1
    51    52    53    1
    52    52    49    1
    53    53    54    2
    54    80    81    1
    55    81    82    1
    56     4     3    2
    57    48    49    1
    58    49    50    1
    59     7     3   am
    60     3     2    1
    61    73    72    2
    62    50    51    2
    63    50    56   am
    64     6     5    1
    65     2     1    1
    66     2     5    1
    67    56    57    1
    68    72    71    1
    69    71    70    1
    70    59    58    2
    71    70    68   am
    72    57    58    1
    73    58    60   am
    74    68    69    2
    75    68    67    1
    76    60    61    1
    77    61    62    1
    78    61    64    1
    79    63    62    2
    80    62    66   am
    81    66    67    1
    82    64    65    1
