@<TRIPOS>MOLECULE
tmp/2ddhA01.pdb
 130 124 0 0 0
SMALL
GASTEIGER

@<TRIPOS>ATOM
      1  N         18.9300    7.1720   61.2780 N.3   101  ASP101     -0.1225
      2  CA        20.3650    7.2730   61.1010 C.3   101  ASP101      0.1805
      3  C         20.8250    6.6810   59.7690 C.2   101  ASP101      0.2597
      4  O         21.5400    7.3350   59.0170 O.2   101  ASP101     -0.2718
      5  CB        21.0410    6.5590   62.2610 C.3   101  ASP101      0.1424
      6  CG        22.5370    6.6790   62.2320 C.2   101  ASP101      0.3668
      7  OD1       23.1750    5.8430   62.8930 O.co2 101  ASP101     -0.2456
      8  OD2       23.0790    7.5960   61.5830 O.co2 101  ASP101     -0.2456
      9  N         20.4240    5.4450   59.4780 N.am  102  LEU102     -0.1979
     10  CA        20.8150    4.8100   58.2150 C.3   102  LEU102      0.1596
     11  C         19.9850    5.3270   57.0440 C.2   102  LEU102      0.2287
     12  O         20.4370    5.3250   55.8960 O.2   102  LEU102     -0.2864
     13  CB        20.6850    3.2830   58.2980 C.3   102  LEU102      0.0297
     14  CG        21.6800    2.5460   59.2020 C.3   102  LEU102      0.0022
     15  CD1       21.4780    1.0470   59.0550 C.3   102  LEU102      0.0001
     16  CD2       23.1070    2.9150   58.8220 C.3   102  LEU102      0.0001
     17  N         21.8480    8.5900   56.5410 N.3   105  GLY105     -0.1210
     18  CA        23.2760    8.4070   56.3480 C.3   105  GLY105      0.1956
     19  C         23.6970    7.4260   55.2690 C.2   105  GLY105      0.2611
     20  O         24.7880    7.5470   54.7140 O.2   105  GLY105     -0.2717
     21  N         22.8410    6.4580   54.9600 N.am  106  MET106     -0.1979
     22  CA        23.1750    5.4610   53.9520 C.3   106  MET106      0.1605
     23  C         22.1450    5.2880   52.8490 C.2   106  MET106      0.2287
     24  O         22.4840    5.3290   51.6650 O.2   106  MET106     -0.2864
     25  CB        23.4150    4.1020   54.6180 C.3   106  MET106      0.0413
     26  CG        24.7900    3.9460   55.2320 C.3   106  MET106      0.0598
     27  SD        26.0800    4.1070   53.9810 S.3   106  MET106     -0.1393
     28  CE        26.0220    2.4800   53.2040 C.3   106  MET106      0.0692
     29  N         20.0850    0.2540   55.5800 N.3   135  TYR135     -0.1241
     30  CA        21.0850   -0.4900   54.8210 C.3   135  TYR135      0.1605
     31  C         21.4190   -1.7240   55.6510 C.2   135  TYR135      0.2264
     32  O         21.8800   -1.5980   56.7820 O.2   135  TYR135     -0.2867
     33  CB        22.3440    0.3600   54.6410 C.3   135  TYR135      0.0534
     34  CG        23.3200   -0.1820   53.6240 C.ar  135  TYR135     -0.0201
     35  CD1       23.1560    0.0830   52.2680 C.ar  135  TYR135     -0.0009
     36  CD2       24.4010   -0.9700   54.0170 C.ar  135  TYR135     -0.0009
     37  CE1       24.0450   -0.4220   51.3240 C.ar  135  TYR135      0.0417
     38  CE2       25.2960   -1.4850   53.0830 C.ar  135  TYR135      0.0417
     39  CZ        25.1110   -1.2060   51.7370 C.ar  135  TYR135      0.1957
     40  OH        25.9890   -1.7080   50.8030 O.3   135  TYR135     -0.2866
     41  N         23.7500   -4.8040   56.0020 N.3   137  GLN137     -0.1231
     42  CA        25.0000   -5.4420   55.6170 C.3   137  GLN137      0.1698
     43  C         25.3150   -6.6330   56.5200 C.2   137  GLN137      0.2592
     44  O         25.2930   -7.7790   56.0880 O.2   137  GLN137     -0.2718
     45  CB        26.1330   -4.4120   55.7120 C.3   137  GLN137      0.0381
     46  CG        27.4740   -4.8880   55.2090 C.3   137  GLN137      0.0905
     47  CD        28.5190   -3.7830   55.2460 C.2   137  GLN137      0.2608
     48  OE1       29.0990   -3.4860   56.2940 O.2   137  GLN137     -0.2717
     49  NE2       28.7510   -3.1570   54.0980 N.am  137  GLN137     -0.0878
     50  N         25.6120   -6.3440   57.7800 N.am  138  THR138     -0.1953
     51  CA        25.9530   -7.3680   58.7520 C.3   138  THR138      0.1897
     52  C         24.9180   -8.4850   58.8810 C.2   138  THR138      0.2313
     53  O         23.7140   -8.2540   58.7790 O.2   138  THR138     -0.2863
     54  CB        26.1760   -6.7360   60.1440 C.3   138  THR138      0.1794
     55  OG1       27.2160   -5.7530   60.0580 O.3   138  THR138     -0.2208
     56  CG2       26.5780   -7.7970   61.1630 C.3   138  THR138      0.0378
     57  N         30.3290  -10.1710   60.4240 N.3   143  GLY143     -0.1225
     58  CA        30.3840   -8.7330   60.5840 C.3   143  GLY143      0.1811
     59  C         31.6720   -8.2490   59.9490 C.2   143  GLY143      0.2280
     60  O         31.6700   -7.4010   59.0520 O.2   143  GLY143     -0.2866
     61  N         22.0610    2.0610   73.2660 N.3   231  TYR231     -0.1241
     62  CA        21.2650    2.1810   72.0490 C.3   231  TYR231      0.1605
     63  C         19.7930    1.8360   72.2510 C.2   231  TYR231      0.2264
     64  O         19.1710    1.1870   71.4110 O.2   231  TYR231     -0.2867
     65  CB        21.8610    1.2990   70.9440 C.3   231  TYR231      0.0534
     66  CG        22.9050    2.0090   70.1080 C.ar  231  TYR231     -0.0201
     67  CD1       24.0330    2.5790   70.6990 C.ar  231  TYR231     -0.0009
     68  CD2       22.7460    2.1380   68.7250 C.ar  231  TYR231     -0.0009
     69  CE1       24.9760    3.2620   69.9370 C.ar  231  TYR231      0.0417
     70  CE2       23.6810    2.8190   67.9530 C.ar  231  TYR231      0.0417
     71  CZ        24.7920    3.3790   68.5650 C.ar  231  TYR231      0.1957
     72  OH        25.7090    4.0610   67.8010 O.3   231  TYR231     -0.2866
     73  N         34.0510    8.1560   57.3300 N.3   272  VAL272     -0.1245
     74  CA        33.3870    7.6890   58.5430 C.3   272  VAL272      0.1561
     75  C         34.3870    7.5140   59.6790 C.2   272  VAL272      0.2260
     76  O         34.0260    7.6000   60.8490 O.2   272  VAL272     -0.2867
     77  CB        32.6580    6.3530   58.3100 C.3   272  VAL272      0.0252
     78  CG1       31.7770    6.4570   57.0810 C.3   272  VAL272      0.0019
     79  CG2       33.6620    5.2260   58.1650 C.3   272  VAL272      0.0019
     80  N         35.1890   10.8900   61.2310 N.3   275  PHE275     -0.1227
     81  CA        34.0770   11.2430   62.1000 C.3   275  PHE275      0.1736
     82  C         34.1560   10.4890   63.4220 C.2   275  PHE275      0.2595
     83  O         33.8510   11.0430   64.4820 O.2   275  PHE275     -0.2718
     84  CB        32.7360   10.9470   61.4240 C.3   275  PHE275      0.0547
     85  CG        31.5810   10.9210   62.3850 C.ar  275  PHE275     -0.0202
     86  CD1       31.2820    9.7620   63.0990 C.ar  275  PHE275     -0.0042
     87  CD2       30.8500   12.0760   62.6480 C.ar  275  PHE275     -0.0042
     88  CE1       30.2830    9.7570   64.0620 C.ar  275  PHE275     -0.0003
     89  CE2       29.8450   12.0780   63.6120 C.ar  275  PHE275     -0.0003
     90  CZ        29.5620   10.9200   64.3200 C.ar  275  PHE275     -0.0000
     91  N         34.5530    9.2230   63.3660 N.am  276  LEU276     -0.1980
     92  CA        34.6500    8.4360   64.5870 C.3   276  LEU276      0.1596
     93  C         35.7670    8.9600   65.4850 C.2   276  LEU276      0.2287
     94  O         35.6720    8.8800   66.7080 O.2   276  LEU276     -0.2864
     95  CB        34.8600    6.9590   64.2580 C.3   276  LEU276      0.0297
     96  CG        33.5940    6.2670   63.7340 C.3   276  LEU276      0.0022
     97  CD1       33.9080    4.8380   63.3310 C.3   276  LEU276      0.0001
     98  CD2       32.5190    6.2890   64.8170 C.3   276  LEU276      0.0001
     99  N         34.1980   11.7750   67.1240 N.3   279  ASN279     -0.1240
    100  CA        33.2070   11.2510   68.0590 C.3   279  ASN279      0.1653
    101  C         33.9180   10.8120   69.3420 C.2   279  ASN279      0.2266
    102  O         33.4330   11.0540   70.4470 O.2   279  ASN279     -0.2867
    103  CB        32.4860   10.0660   67.4090 C.3   279  ASN279      0.1155
    104  CG        31.3320    9.5310   68.2450 C.2   279  ASN279      0.2627
    105  OD1       30.5600    8.7010   67.7690 O.2   279  ASN279     -0.2716
    106  ND2       31.2110    9.9910   69.4850 N.am  279  ASN279     -0.0877
    107  N         32.0880   -1.3690   65.7060 N.3   401  PHE401     -0.1227
    108  CA        31.6350   -1.1860   64.3360 C.3   401  PHE401      0.1736
    109  C         32.5420   -0.2790   63.5050 C.2   401  PHE401      0.2595
    110  O         33.4330    0.3810   64.0370 O.2   401  PHE401     -0.2718
    111  CB        30.1590   -0.7150   64.2790 C.3   401  PHE401      0.0547
    112  CG        29.8680    0.5950   64.9830 C.ar  401  PHE401     -0.0202
    113  CD1       30.6860    1.7120   64.8180 C.ar  401  PHE401     -0.0042
    114  CD2       28.7190    0.7220   65.7670 C.ar  401  PHE401     -0.0042
    115  CE1       30.3590    2.9300   65.4220 C.ar  401  PHE401     -0.0003
    116  CE2       28.3840    1.9340   66.3720 C.ar  401  PHE401     -0.0003
    117  CZ        29.2070    3.0410   66.1980 C.ar  401  PHE401     -0.0000
    118  N         32.3160   -0.2790   62.1930 N.am  402  GLU402     -0.1965
    119  CA        33.0980    0.4970   61.2320 C.3   402  GLU402      0.1733
    120  C         34.5390   -0.0060   61.2670 C.2   402  GLU402      0.2616
    121  O         35.4940    0.7660   61.1730 O.2   402  GLU402     -0.2715
    122  CB        33.0260    1.9910   61.5630 C.3   402  GLU402      0.0429
    123  CG        31.6100    2.5850   61.4830 C.3   402  GLU402      0.1163
    124  CD        31.1230    2.8470   60.0550 C.2   402  GLU402      0.3649
    125  OE1       31.2240    1.9520   59.1900 O.co2 402  GLU402     -0.2457
    126  OE2       30.6220    3.9610   59.7990 O.co2 402  GLU402     -0.2457
    127  N         34.6720   -1.3210   61.4050 N.am  403  GLY403     -0.1955
    128  CA        35.9740   -1.9590   61.4620 C.3   403  GLY403      0.1869
    129  C         36.3710   -2.2430   62.8990 C.2   403  GLY403      0.2309
    130  O         36.7230   -1.3160   63.6360 O.2   403  GLY403     -0.2863
@<TRIPOS>BOND
     1    40    39    1
     2    37    39   ar
     3    37    35   ar
     4    24    23    2
     5    39    38   ar
     6    35    34   ar
     7    23    22    1
     8    38    36   ar
     9    28    27    1
    10    34    36   ar
    11    34    33    1
    12    22    25    1
    13    22    21    1
    14    27    26    1
    15    49    47   am
    16    25    26    1
    17    33    30    1
    18    20    19    2
    19    30    29    1
    20    30    31    1
    21    21    19   am
    22    46    47    1
    23    46    45    1
    24    47    48    2
    25    19    18    1
    26    42    45    1
    27    42    41    1
    28    42    43    1
    29    31    32    2
    30    12    11    2
    31    44    43    2
    32    18    17    1
    33    43    50   am
    34    11    10    1
    35    78    77    1
    36    73    74    1
    37    50    51    1
    38    79    77    1
    39    10    13    1
    40    10     9    1
    41    13    14    1
    42    77    74    1
    43    74    75    1
    44    51    52    1
    45    51    54    1
    46    53    52    2
    47    16    14    1
    48     4     3    2
    49    60    59    2
    50    15    14    1
    51   125   124   ar
    52     9     3   am
    53    75    76    2
    54     3     2    1
    55   126   124   ar
    56    59    58    1
    57   124   123    1
    58    55    54    1
    59    54    56    1
    60    57    58    1
    61     2     1    1
    62     2     5    1
    63   121   120    2
    64    80    81    1
    65   119   120    1
    66   119   122    1
    67   119   118    1
    68   120   127   am
    69   127   128    1
    70    84    81    1
    71    84    85    1
    72   128   129    1
    73   123   122    1
    74     8     6   ar
    75    81    82    1
    76   118   109   am
    77     6     5    1
    78     6     7   ar
    79    85    87   ar
    80    85    86   ar
    81    87    89   ar
    82   129   130    2
    83    86    88   ar
    84    97    96    1
    85    91    82   am
    86    91    92    1
    87    82    83    2
    88   109   110    2
    89   109   108    1
    90    89    90   ar
    91    96    95    1
    92    96    98    1
    93    88    90   ar
    94    95    92    1
    95   111   108    1
    96   111   112    1
    97   108   107    1
    98    92    93    1
    99   113   112   ar
   100   113   115   ar
   101   112   114   ar
   102   115   117   ar
   103    93    94    2
   104   114   116   ar
   105   117   116   ar
   106    99   100    1
   107   103   100    1
   108   103   104    1
   109   105   104    2
   110    72    71    1
   111    70    71   ar
   112    70    68   ar
   113   100   101    1
   114   104   106   am
   115    71    69   ar
   116    68    66   ar
   117   101   102    2
   118    69    67   ar
   119    66    67   ar
   120    66    65    1
   121    65    62    1
   122    64    63    2
   123    62    63    1
   124    62    61    1
