@<TRIPOS>MOLECULE
tmp/2ddmB00.pdb
 82 77 0 0 0
SMALL
GASTEIGER

@<TRIPOS>ATOM
      1  N         28.6410    0.3400   27.6010 N.3   124  ASP124     -0.1239
      2  CA        29.2490   -0.7660   28.3250 C.3   124  ASP124      0.1674
      3  C         28.7800   -1.9660   27.5090 C.2   124  ASP124      0.2266
      4  O         27.6230   -2.3740   27.6090 O.2   124  ASP124     -0.2867
      5  CB        28.7020   -0.8260   29.7460 C.3   124  ASP124      0.1410
      6  CG        29.3920   -1.8680   30.5900 C.2   124  ASP124      0.3668
      7  OD1       30.3890   -2.4600   30.1220 O.co2 124  ASP124     -0.2456
      8  OD2       28.9330   -2.0900   31.7310 O.co2 124  ASP124     -0.2456
      9  N         28.1560   -5.0500   27.3550 N.3   126  VAL126     -0.1245
     10  CA        27.8710   -6.2760   28.0970 C.3   126  VAL126      0.1561
     11  C         27.5290   -7.4240   27.1530 C.2   126  VAL126      0.2260
     12  O         26.3920   -7.5480   26.6940 O.2   126  VAL126     -0.2867
     13  CB        26.6940   -6.0890   29.0820 C.3   126  VAL126      0.0252
     14  CG1       26.4640   -7.3750   29.8610 C.3   126  VAL126      0.0019
     15  CG2       26.9830   -4.9400   30.0330 C.3   126  VAL126      0.0019
     16  N         33.4970    0.7290   27.6670 N.3   150  THR150     -0.1204
     17  CA        34.1570    0.0560   28.7770 C.3   150  THR150      0.1979
     18  C         34.1220   -1.4660   28.6810 C.2   150  THR150      0.2460
     19  O         33.5040   -2.1400   29.5070 O.2   150  THR150     -0.2732
     20  CB        33.5090    0.4520   30.0970 C.3   150  THR150      0.1783
     21  OG1       32.1180    0.1030   30.0580 O.3   150  THR150     -0.2211
     22  CG2       33.6740    1.9480   30.3360 C.3   150  THR150      0.0376
     23  N         34.8030   -2.0350   27.6830 N.am  151  PRO151     -0.2717
     24  CA        34.7770   -3.4940   27.5750 C.3   151  PRO151      0.1535
     25  C         35.8410   -4.2030   28.4070 C.2   151  PRO151      0.2598
     26  O         36.8490   -3.6050   28.8030 O.2   151  PRO151     -0.2715
     27  CB        35.0030   -3.7170   26.0890 C.3   151  PRO151      0.0310
     28  CG        36.0130   -2.6380   25.7660 C.3   151  PRO151      0.0237
     29  CD        35.4590   -1.4220   26.5110 C.3   151  PRO151      0.0939
     30  N         35.6020   -5.4770   28.6980 N.am  152  ASN152     -0.1973
     31  CA        36.6060   -6.2530   29.3990 C.3   152  ASN152      0.1688
     32  C         37.3550   -6.9100   28.2380 C.2   152  ASN152      0.2292
     33  O         36.9970   -6.6910   27.0790 O.2   152  ASN152     -0.2864
     34  CB        35.9620   -7.2830   30.3380 C.3   152  ASN152      0.1181
     35  CG        35.0700   -8.2730   29.6180 C.2   152  ASN152      0.2629
     36  OD1       34.1710   -8.8570   30.2270 O.2   152  ASN152     -0.2716
     37  ND2       35.3200   -8.4850   28.3290 N.am  152  ASN152     -0.0877
     38  N         35.0400   -8.9100   25.8030 N.3   155  GLU155     -0.1245
     39  CA        34.1810   -8.0570   24.9930 C.3   155  GLU155      0.1567
     40  C         34.9760   -7.2770   23.9660 C.2   155  GLU155      0.2260
     41  O         34.5010   -7.0430   22.8610 O.2   155  GLU155     -0.2867
     42  CB        33.3830   -7.1230   25.8940 C.3   155  GLU155      0.0388
     43  CG        32.6830   -7.8940   26.9920 C.3   155  GLU155      0.1160
     44  CD        32.0310   -7.0120   28.0210 C.2   155  GLU155      0.3649
     45  OE1       32.6280   -5.9740   28.3900 O.co2 155  GLU155     -0.2457
     46  OE2       30.9220   -7.3720   28.4680 O.co2 155  GLU155     -0.2457
     47  N         39.1640   -3.3510   30.8880 N.3   188  THR188     -0.1218
     48  CA        39.5040   -3.8900   32.1980 C.3   188  THR188      0.1862
     49  C         39.5490   -5.4190   32.1810 C.2   188  THR188      0.2287
     50  O         38.8620   -6.0620   31.3850 O.2   188  THR188     -0.2866
     51  CB        38.4830   -3.4220   33.2560 C.3   188  THR188      0.1770
     52  OG1       37.1890   -3.9380   32.9330 O.3   188  THR188     -0.2211
     53  CG2       38.4030   -1.9000   33.2810 C.3   188  THR188      0.0375
     54  N         30.2350   -3.5930   37.9310 N.3   223  GLY223     -0.1210
     55  CA        30.5370   -2.9660   36.6530 C.3   223  GLY223      0.1956
     56  C         29.5690   -1.8280   36.3690 C.2   223  GLY223      0.2611
     57  O         29.9670   -0.7570   35.8920 O.2   223  GLY223     -0.2717
     58  N         28.2890   -2.0510   36.6630 N.am  224  ASP224     -0.1973
     59  CA        27.2930   -1.0100   36.4460 C.3   224  ASP224      0.1709
     60  C         27.6010    0.1470   37.3850 C.2   224  ASP224      0.2293
     61  O         27.4290    1.3080   37.0240 O.2   224  ASP224     -0.2864
     62  CB        25.8780   -1.5290   36.7250 C.3   224  ASP224      0.1436
     63  CG        25.5620   -2.8100   35.9680 C.2   224  ASP224      0.3671
     64  OD1       25.9860   -2.9340   34.8050 O.co2 224  ASP224     -0.2456
     65  OD2       24.8760   -3.6890   36.5310 O.co2 224  ASP224     -0.2456
     66  N         30.6020    0.9070   38.5360 N.3   226  PHE226     -0.1227
     67  CA        31.8090    1.5340   38.0230 C.3   226  PHE226      0.1736
     68  C         31.4240    2.5710   36.9840 C.2   226  PHE226      0.2595
     69  O         31.8820    3.7160   37.0210 O.2   226  PHE226     -0.2718
     70  CB        32.7090    0.4870   37.3780 C.3   226  PHE226      0.0547
     71  CG        33.8440    1.0750   36.5980 C.ar  226  PHE226     -0.0202
     72  CD1       34.9400    1.6380   37.2560 C.ar  226  PHE226     -0.0042
     73  CD2       33.8170    1.0820   35.2030 C.ar  226  PHE226     -0.0042
     74  CE1       35.9940    2.2010   36.5330 C.ar  226  PHE226     -0.0003
     75  CE2       34.8660    1.6440   34.4710 C.ar  226  PHE226     -0.0003
     76  CZ        35.9570    2.2030   35.1380 C.ar  226  PHE226     -0.0000
     77  N         30.5700    2.1600   36.0560 N.am  227  CYS227     -0.1970
     78  CA        30.1370    3.0510   35.0020 C.3   227  CYS227      0.1712
     79  C         29.3900    4.2580   35.5500 C.2   227  CYS227      0.2296
     80  O         29.6160    5.3810   35.0930 O.2   227  CYS227     -0.2864
     81  CB        29.2780    2.2910   33.9870 C.3   227  CYS227      0.0983
     82  SG        30.2580    1.1970   32.9120 S.3   227  CYS227     -0.0798
@<TRIPOS>BOND
     1    41    40    2
     2    40    39    1
     3    39    38    1
     4    39    42    1
     5    28    27    1
     6    28    29    1
     7    42    43    1
     8    27    24    1
     9    29    23    1
    10    12    11    2
    11    43    44    1
    12    33    32    2
    13    11    10    1
    14     9    10    1
    15     3     4    2
    16     3     2    1
    17    24    23    1
    18    24    25    1
    19     1     2    1
    20    16    17    1
    21    23    18   am
    22    44    45   ar
    23    44    46   ar
    24    10    13    1
    25    32    31    1
    26     2     5    1
    27    37    35   am
    28    25    30   am
    29    25    26    2
    30    18    17    1
    31    18    19    2
    32    30    31    1
    33    17    20    1
    34    13    14    1
    35    13    15    1
    36    31    34    1
    37    35    36    2
    38    35    34    1
    39     5     6    1
    40    21    20    1
    41    20    22    1
    42     7     6   ar
    43     6     8   ar
    44    47    48    1
    45    50    49    2
    46    49    48    1
    47    48    51    1
    48    82    81    1
    49    52    51    1
    50    51    53    1
    51    81    78    1
    52    75    76   ar
    53    75    73   ar
    54    64    63   ar
    55    78    79    1
    56    78    77    1
    57    80    79    2
    58    76    74   ar
    59    73    71   ar
    60    57    56    2
    61    63    65   ar
    62    63    62    1
    63    77    68   am
    64    56    55    1
    65    56    58   am
    66    59    58    1
    67    59    62    1
    68    59    60    1
    69    74    72   ar
    70    71    72   ar
    71    71    70    1
    72    55    54    1
    73    68    69    2
    74    68    67    1
    75    61    60    2
    76    70    67    1
    77    67    66    1
