@<TRIPOS>MOLECULE
tmp/2ddoA00.pdb
 195 180 0 0 0
SMALL
GASTEIGER

@<TRIPOS>ATOM
      1  N         -5.0280    1.4720   48.0150 N.3   116  ASP116     -0.1239
      2  CA        -5.5960    2.6900   47.4610 C.3   116  ASP116      0.1674
      3  C         -6.4890    2.2640   46.3030 C.2   116  ASP116      0.2266
      4  O         -6.0050    2.0740   45.1860 O.2   116  ASP116     -0.2867
      5  CB        -4.5040    3.6140   46.9470 C.3   116  ASP116      0.1410
      6  CG        -5.0100    5.0070   46.6860 C.2   116  ASP116      0.3668
      7  OD1       -4.2340    5.8530   46.1970 O.co2 116  ASP116     -0.2456
      8  OD2       -6.1990    5.2440   46.9790 O.co2 116  ASP116     -0.2456
      9  N         -7.8450    2.6990   43.5760 N.3   118  VAL118     -0.1245
     10  CA        -7.8660    3.5720   42.4030 C.3   118  VAL118      0.1561
     11  C         -8.8240    3.0260   41.3500 C.2   118  VAL118      0.2260
     12  O         -8.4830    2.1290   40.5630 O.2   118  VAL118     -0.2867
     13  CB        -6.4650    3.7240   41.7810 C.3   118  VAL118      0.0252
     14  CG1       -6.5010    4.7480   40.6690 C.3   118  VAL118      0.0019
     15  CG2       -5.4630    4.1540   42.8490 C.3   118  VAL118      0.0019
     16  N        -11.8650    5.4660   40.2630 N.3   120  GLY120     -0.1210
     17  CA       -12.3580    6.6090   39.5280 C.3   120  GLY120      0.1956
     18  C        -12.3970    7.8670   40.3560 C.2   120  GLY120      0.2611
     19  O        -11.9370    7.8980   41.5020 O.2   120  GLY120     -0.2717
     20  N        -12.9440    8.9140   39.7500 N.am  121  ASP121     -0.1973
     21  CA       -13.0920   10.2130   40.3790 C.3   121  ASP121      0.1709
     22  C        -14.5390   10.6110   40.1380 C.2   121  ASP121      0.2293
     23  O        -15.1910   10.0670   39.2470 O.2   121  ASP121     -0.2864
     24  CB       -12.1440   11.2190   39.7260 C.3   121  ASP121      0.1436
     25  CG       -11.8790   12.4270   40.6030 C.2   121  ASP121      0.3671
     26  OD1      -12.0820   12.3230   41.8330 O.co2 121  ASP121     -0.2456
     27  OD2      -11.4480   13.4730   40.0700 O.co2 121  ASP121     -0.2456
     28  N        -12.2190    5.3050   35.7870 N.3   127  TYR127     -0.1241
     29  CA       -11.2220    5.5600   34.7550 C.3   127  TYR127      0.1605
     30  C        -10.1150    4.5150   34.7120 C.2   127  TYR127      0.2264
     31  O         -9.0370    4.7770   34.1990 O.2   127  TYR127     -0.2867
     32  CB       -10.6030    6.9710   34.9040 C.3   127  TYR127      0.0534
     33  CG        -9.8750    7.2700   36.2150 C.ar  127  TYR127     -0.0201
     34  CD1       -8.8470    6.4460   36.6860 C.ar  127  TYR127     -0.0009
     35  CD2      -10.2280    8.3780   36.9860 C.ar  127  TYR127     -0.0009
     36  CE1       -8.2020    6.7170   37.8950 C.ar  127  TYR127      0.0417
     37  CE2       -9.5890    8.6550   38.1920 C.ar  127  TYR127      0.0417
     38  CZ        -8.5850    7.8210   38.6450 C.ar  127  TYR127      0.1957
     39  OH        -8.0170    8.0750   39.8760 O.3   127  TYR127     -0.2866
     40  N         -7.7460    3.9870   51.4310 N.3   148  THR148     -0.1218
     41  CA        -7.7760    5.4210   51.1760 C.3   148  THR148      0.1862
     42  C         -8.5420    5.7830   49.9170 C.2   148  THR148      0.2287
     43  O         -7.9550    6.2660   48.9570 O.2   148  THR148     -0.2866
     44  CB        -6.3440    5.9520   51.0160 C.3   148  THR148      0.1770
     45  OG1       -5.6960    5.2420   49.9590 O.3   148  THR148     -0.2211
     46  CG2       -5.5500    5.7360   52.2720 C.3   148  THR148      0.0375
     47  N        -11.6900    7.8090   47.6430 N.3   150  ASN150     -0.1240
     48  CA       -12.3250    9.1210   47.5570 C.3   150  ASN150      0.1653
     49  C        -13.8280    8.8680   47.5750 C.2   150  ASN150      0.2266
     50  O        -14.2620    7.7170   47.4680 O.2   150  ASN150     -0.2867
     51  CB       -11.9140    9.8660   46.2700 C.3   150  ASN150      0.1155
     52  CG       -12.2820    9.1160   44.9930 C.2   150  ASN150      0.2627
     53  OD1      -11.7070    9.3640   43.9220 O.2   150  ASN150     -0.2716
     54  ND2      -13.2390    8.2120   45.0900 N.am  150  ASN150     -0.0877
     55  N        -14.9480    6.4880   44.8890 N.3   153  GLU153     -0.1245
     56  CA       -14.3870    5.1710   45.0560 C.3   153  GLU153      0.1567
     57  C        -15.0520    4.4580   46.2270 C.2   153  GLU153      0.2260
     58  O        -15.0500    3.2230   46.3140 O.2   153  GLU153     -0.2867
     59  CB       -12.8810    5.3040   45.2440 C.3   153  GLU153      0.0388
     60  CG       -12.1950    5.8810   44.0200 C.3   153  GLU153      0.1160
     61  CD       -10.7340    6.1410   44.2610 C.2   153  GLU153      0.3649
     62  OE1      -10.4260    6.7110   45.3230 O.co2 153  GLU153     -0.2457
     63  OE2       -9.8980    5.7870   43.4020 O.co2 153  GLU153     -0.2457
     64  N        -11.8280   10.5810   51.1750 N.3   186  THR186     -0.1203
     65  CA       -11.3040   11.8150   50.6170 C.3   186  THR186      0.1994
     66  C        -12.1640   12.6700   49.6780 C.2   186  THR186      0.2618
     67  O        -12.9620   12.1510   48.9140 O.2   186  THR186     -0.2717
     68  CB        -9.8780   11.9090   50.1150 C.3   186  THR186      0.1784
     69  OG1       -9.7180   13.0860   49.3140 O.3   186  THR186     -0.2211
     70  CG2       -9.5760   10.6970   49.2880 C.3   186  THR186      0.0376
     71  N        -11.9780   13.9850   49.7310 N.am  187  SER187     -0.1951
     72  CA       -12.9000   14.9200   49.1000 C.3   187  SER187      0.1924
     73  C        -12.4580   16.3440   49.4190 C.2   187  SER187      0.2314
     74  O        -13.3270   17.1730   49.7810 O.2   187  SER187     -0.2863
     75  CB       -14.3360   14.6970   49.5980 C.3   187  SER187      0.2116
     76  OG       -14.4890   14.9250   50.9940 O.3   187  SER187     -0.2180
     77  N         -9.8670   21.3700   51.4600 N.3   189  MET189     -0.1245
     78  CA        -9.7660   19.9340   51.2300 C.3   189  MET189      0.1570
     79  C        -10.1990   19.2140   52.5090 C.2   189  MET189      0.2261
     80  O         -9.6230   19.4250   53.5760 O.2   189  MET189     -0.2867
     81  CB        -8.3150   19.5690   50.8880 C.3   189  MET189      0.0387
     82  CG        -7.9590   19.6600   49.4160 C.3   189  MET189      0.0595
     83  SD        -8.4790   18.1490   48.6100 S.3   189  MET189     -0.1393
     84  CE        -9.9890   18.7270   47.8490 C.3   189  MET189      0.0692
     85  N        -10.6960   15.7020   54.5690 N.3   191  VAL191     -0.1245
     86  CA       -10.2430   14.3260   54.6460 C.3   191  VAL191      0.1561
     87  C        -10.8400   13.7750   55.9270 C.2   191  VAL191      0.2260
     88  O        -10.5540   14.2830   57.0090 O.2   191  VAL191     -0.2867
     89  CB        -8.7020   14.2540   54.6840 C.3   191  VAL191      0.0252
     90  CG1       -8.2340   12.7950   54.7410 C.3   191  VAL191      0.0019
     91  CG2       -8.1500   14.9570   53.4570 C.3   191  VAL191      0.0019
     92  N         -7.3850   21.1240   55.1310 N.3   204  HIS204     -0.1226
     93  CA        -6.2500   22.0080   54.8450 C.3   204  HIS204      0.1752
     94  C         -6.4580   22.7410   53.5170 C.2   204  HIS204      0.2597
     95  O         -7.5230   22.6310   52.9060 O.2   204  HIS204     -0.2718
     96  CB        -4.9350   21.2210   54.8050 C.3   204  HIS204      0.0759
     97  CG        -5.0040   19.9580   53.9930 C.ar  204  HIS204      0.0818
     98  ND1       -5.2220   19.9450   52.6360 N.ar  204  HIS204     -0.2268
     99  CD2       -4.8570   18.6580   54.3580 C.ar  204  HIS204      0.1154
    100  CE1       -5.2060   18.6940   52.1940 C.ar  204  HIS204      0.1986
    101  NE2       -4.9870   17.8980   53.2240 N.ar  204  HIS204     -0.2212
    102  N         -5.4430   23.4850   53.0770 N.am  205  SER205     -0.1938
    103  CA        -5.5300   24.2590   51.8330 C.3   205  SER205      0.2055
    104  C         -5.6790   23.3890   50.5950 C.2   205  SER205      0.2643
    105  O         -5.3120   22.2120   50.6050 O.2   205  SER205     -0.2714
    106  CB        -4.2870   25.1290   51.6460 C.3   205  SER205      0.2130
    107  OG        -4.1420   26.0720   52.6880 O.3   205  SER205     -0.2179
    108  N         -6.2120   23.9830   49.5290 N.am  206  ARG206     -0.1963
    109  CA        -6.4000   23.2910   48.2580 C.3   206  ARG206      0.1729
    110  C         -5.8270   24.1440   47.1320 C.2   206  ARG206      0.2616
    111  O         -5.9960   25.3620   47.1150 O.2   206  ARG206     -0.2715
    112  CB        -7.8950   23.0180   47.9880 C.3   206  ARG206      0.0348
    113  CG        -8.4390   23.6480   46.6810 C.3   206  ARG206      0.0492
    114  CD        -9.8740   23.2230   46.3000 C.3   206  ARG206      0.2205
    115  NE       -10.9390   23.7690   47.1480 N.pl3 206  ARG206     -0.0865
    116  CZ       -11.2370   25.0650   47.2780 C.cat 206  ARG206      0.5346
    117  NH1      -12.2360   25.4260   48.0750 N.pl3 206  ARG206      0.1354
    118  NH2      -10.5440   26.0060   46.6360 N.pl3 206  ARG206      0.1354
    119  N         -5.1470   23.5050   46.1910 N.am  207  VAL207     -0.1977
    120  CA        -4.5850   24.2340   45.0650 C.3   207  VAL207      0.1596
    121  C         -5.2410   23.7730   43.7690 C.2   207  VAL207      0.2287
    122  O         -5.5530   22.5910   43.6100 O.2   207  VAL207     -0.2864
    123  CB        -3.0680   24.0180   44.9520 C.3   207  VAL207      0.0276
    124  CG1       -2.5530   24.6940   43.7040 C.3   207  VAL207      0.0022
    125  CG2       -2.3710   24.5770   46.1850 C.3   207  VAL207      0.0022
    126  N         -4.5950   22.7700   40.5300 N.3   209  THR209     -0.1218
    127  CA        -3.5540   22.2930   39.6360 C.3   209  THR209      0.1862
    128  C         -3.8230   20.8390   39.2840 C.2   209  THR209      0.2287
    129  O         -4.3020   20.0630   40.1130 O.2   209  THR209     -0.2866
    130  CB        -2.1770   22.3840   40.2850 C.3   209  THR209      0.1770
    131  OG1       -1.1700   22.0100   39.3370 O.3   209  THR209     -0.2211
    132  CG2       -2.1070   21.4470   41.4750 C.3   209  THR209      0.0375
    133  N         -1.7950   18.4430   38.8780 N.3   211  LEU211     -0.1245
    134  CA        -0.6240   17.6350   39.1870 C.3   211  LEU211      0.1561
    135  C         -1.0970   16.2450   39.5690 C.2   211  LEU211      0.2260
    136  O         -1.9480   16.0830   40.4440 O.2   211  LEU211     -0.2867
    137  CB         0.1590   18.2390   40.3490 C.3   211  LEU211      0.0270
    138  CG         0.8710   19.5540   40.0540 C.3   211  LEU211      0.0019
    139  CD1        1.4380   20.1490   41.3220 C.3   211  LEU211      0.0001
    140  CD2        1.9770   19.2910   39.0760 C.3   211  LEU211      0.0001
    141  N         -0.2250   12.9260   43.3600 N.3   214  THR214     -0.1203
    142  CA        -0.4230   13.4200   44.7090 C.3   214  THR214      0.1994
    143  C         -1.0500   12.3480   45.5780 C.2   214  THR214      0.2618
    144  O         -0.7800   12.2720   46.7800 O.2   214  THR214     -0.2717
    145  CB        -1.3200   14.6410   44.7040 C.3   214  THR214      0.1784
    146  OG1       -2.4560   14.3950   43.8580 O.3   214  THR214     -0.2211
    147  CG2       -0.5510   15.8410   44.1970 C.3   214  THR214      0.0376
    148  N         -1.8830   11.5170   44.9610 N.am  215  GLY215     -0.1956
    149  CA        -2.5350   10.4550   45.7030 C.3   215  GLY215      0.1869
    150  C         -1.5260    9.4390   46.1870 C.2   215  GLY215      0.2309
    151  O         -1.5550    9.0090   47.3490 O.2   215  GLY215     -0.2863
    152  N          0.5680   10.8520   48.9240 N.3   218  PHE218     -0.1227
    153  CA        -0.1910   10.8040   50.1610 C.3   218  PHE218      0.1736
    154  C          0.0020    9.4700   50.8620 C.2   218  PHE218      0.2595
    155  O          0.4010    9.4150   52.0280 O.2   218  PHE218     -0.2718
    156  CB        -1.6660   10.9810   49.8550 C.3   218  PHE218      0.0547
    157  CG        -2.5410   10.9550   51.0610 C.ar  218  PHE218     -0.0202
    158  CD1       -2.6350   12.0700   51.8810 C.ar  218  PHE218     -0.0042
    159  CD2       -3.3010    9.8330   51.3560 C.ar  218  PHE218     -0.0042
    160  CE1       -3.4850   12.0700   52.9790 C.ar  218  PHE218     -0.0003
    161  CE2       -4.1480    9.8210   52.4500 C.ar  218  PHE218     -0.0003
    162  CZ        -4.2440   10.9400   53.2630 C.ar  218  PHE218     -0.0000
    163  N         -0.2860    8.3910   50.1460 N.am  219  CYS219     -0.1970
    164  CA        -0.1680    7.0770   50.7300 C.3   219  CYS219      0.1712
    165  C          1.2370    6.7460   51.1340 C.2   219  CYS219      0.2296
    166  O          1.4420    6.1060   52.1640 O.2   219  CYS219     -0.2864
    167  CB        -0.6790    6.0260   49.7570 C.3   219  CYS219      0.0983
    168  SG        -2.4470    6.1760   49.5040 S.3   219  CYS219     -0.0798
    169  N         -1.1570   14.5840   54.3080 N.3   240  GLY240     -0.1225
    170  CA        -1.8780   15.5720   53.5320 C.3   240  GLY240      0.1811
    171  C         -1.1140   16.8890   53.4380 C.2   240  GLY240      0.2280
    172  O         -1.1150   17.5230   52.3770 O.2   240  GLY240     -0.2866
    173  N          1.8890   16.5730   51.0760 N.3   243  VAL243     -0.1231
    174  CA         1.4530   16.6940   49.6930 C.3   243  VAL243      0.1692
    175  C          1.1870   18.1390   49.3190 C.2   243  VAL243      0.2591
    176  O          1.5010   18.5850   48.2170 O.2   243  VAL243     -0.2718
    177  CB         0.1820   15.9110   49.4660 C.3   243  VAL243      0.0266
    178  CG1       -0.3090   16.1620   48.0550 C.3   243  VAL243      0.0020
    179  CG2        0.4330   14.4140   49.7590 C.3   243  VAL243      0.0020
    180  N          0.5720   18.8640   50.2390 N.am  244  LEU244     -0.1980
    181  CA         0.2850   20.2720   50.0290 C.3   244  LEU244      0.1596
    182  C          1.6600   20.9130   49.8670 C.2   244  LEU244      0.2287
    183  O          1.8870   21.6920   48.9430 O.2   244  LEU244     -0.2864
    184  CB        -0.4230   20.8460   51.2520 C.3   244  LEU244      0.0297
    185  CG        -1.0900   22.2260   51.2260 C.3   244  LEU244      0.0022
    186  CD1       -1.6480   22.4650   52.6030 C.3   244  LEU244      0.0001
    187  CD2       -0.1260   23.3440   50.8800 C.3   244  LEU244      0.0001
    188  N          3.4290   20.0810   46.4210 N.3   247  MET247     -0.1245
    189  CA         2.7900   20.7810   45.2970 C.3   247  MET247      0.1570
    190  C          3.2010   22.2490   45.2460 C.2   247  MET247      0.2261
    191  O          3.3660   22.8290   44.1720 O.2   247  MET247     -0.2867
    192  CB         1.2540   20.6890   45.3870 C.3   247  MET247      0.0387
    193  CG         0.6750   19.3030   45.1160 C.3   247  MET247      0.0595
    194  SD        -1.1200   19.2660   45.1900 S.3   247  MET247     -0.1393
    195  CE        -1.3580   19.5710   46.9160 C.3   247  MET247      0.0692
@<TRIPOS>BOND
     1    31    30    2
     2    30    29    1
     3    29    32    1
     4    29    28    1
     5    32    33    1
     6    33    34   ar
     7    33    35   ar
     8    34    36   ar
     9    35    37   ar
    10    36    38   ar
    11    37    38   ar
    12    38    39    1
    13   133   134    1
    14   140   138    1
    15   134   135    1
    16   134   137    1
    17    23    22    2
    18   128   127    1
    19   128   129    2
    20   131   130    1
    21    17    16    1
    22    17    18    1
    23   135   136    2
    24   127   130    1
    25   127   126    1
    26    24    21    1
    27    24    25    1
    28    20    18   am
    29    20    21    1
    30   138   137    1
    31   138   139    1
    32    27    25   ar
    33    22    21    1
    34   130   132    1
    35    18    19    2
    36    12    11    2
    37    25    26   ar
    38    14    13    1
    39    11    10    1
    40    13    10    1
    41    13    15    1
    42    10     9    1
    43   141   142    1
    44    63    61   ar
    45   122   121    2
    46   124   123    1
    47   121   120    1
    48   146   145    1
    49    53    52    2
    50    60    61    1
    51    60    59    1
    52   191   190    2
    53   147   145    1
    54    61    62   ar
    55   145   142    1
    56   142   143    1
    57    55    56    1
    58   123   120    1
    59   123   125    1
    60   148   143   am
    61   148   149    1
    62    52    54   am
    63    52    51    1
    64    56    59    1
    65    56    57    1
    66   120   119    1
    67   193   194    1
    68   193   192    1
    69     4     3    2
    70   194   195    1
    71   190   189    1
    72   189   192    1
    73   189   188    1
    74   143   144    2
    75   149   150    1
    76   150   151    2
    77   119   110   am
    78     7     6   ar
    79    57    58    2
    80    51    48    1
    81   114   113    1
    82   114   115    1
    83     3     2    1
    84   118   116    1
    85   113   112    1
    86     6     5    1
    87     6     8   ar
    88     5     2    1
    89   111   110    2
    90   110   109    1
    91   115   116    2
    92   116   117    1
    93     2     1    1
    94    50    49    2
    95    48    49    1
    96    48    47    1
    97    84    83    1
    98   112   109    1
    99   178   177    1
   100   176   175    2
   101   109   108    1
   102    83    82    1
   103    67    66    2
   104   152   153    1
   105   183   182    2
   106    43    42    2
   107    72    73    1
   108    72    75    1
   109    72    71    1
   110    70    68    1
   111    69    68    1
   112   175   174    1
   113   175   180   am
   114    82    81    1
   115    73    74    2
   116   177   174    1
   117   177   179    1
   118   168   167    1
   119   108   104   am
   120    75    76    1
   121    66    71   am
   122    66    65    1
   123   174   173    1
   124   167   164    1
   125   156   153    1
   126   156   157    1
   127   182   181    1
   128    42    41    1
   129    45    44    1
   130   181   180    1
   131   181   184    1
   132    68    65    1
   133   163   164    1
   134   163   154   am
   135   153   154    1
   136   104   105    2
   137   104   103    1
   138    65    64    1
   139   164   165    1
   140   154   155    2
   141   187   185    1
   142    81    78    1
   143    44    41    1
   144    44    46    1
   145   157   159   ar
   146   157   158   ar
   147   165   166    2
   148    41    40    1
   149   185   184    1
   150   185   186    1
   151    78    77    1
   152    78    79    1
   153   159   161   ar
   154   106   103    1
   155   106   107    1
   156   103   102    1
   157   158   160   ar
   158   100    98   ar
   159   100   101   ar
   160   172   171    2
   161   161   162   ar
   162    79    80    2
   163    98    97   ar
   164    95    94    2
   165   160   162   ar
   166   102    94   am
   167   101    99   ar
   168   171   170    1
   169    91    89    1
   170    94    93    1
   171   170   169    1
   172    97    99   ar
   173    97    96    1
   174    85    86    1
   175    86    89    1
   176    86    87    1
   177    89    90    1
   178    96    93    1
   179    93    92    1
   180    87    88    2
