@<TRIPOS>MOLECULE
tmp/2ddqB00.pdb
 92 87 0 0 0
SMALL
GASTEIGER

@<TRIPOS>ATOM
      1  N         54.6090    4.4030   -7.8170 N.3    31  HIS31      -0.1241
      2  CA        55.5220    4.6090   -6.7100 C.3    31  HIS31       0.1621
      3  C         56.9280    4.7980   -7.2660 C.2    31  HIS31       0.2264
      4  O         57.2400    4.3200   -8.3570 O.2    31  HIS31      -0.2867
      5  CB        55.4720    3.4050   -5.7760 C.3    31  HIS31       0.0745
      6  CG        56.4480    3.4700   -4.6460 C.ar   31  HIS31       0.0817
      7  ND1       56.0680    3.7280   -3.3470 N.ar   31  HIS31      -0.2268
      8  CD2       57.7850    3.2570   -4.6130 C.ar   31  HIS31       0.1154
      9  CE1       57.1280    3.6640   -2.5610 C.ar   31  HIS31       0.1986
     10  NE2       58.1820    3.3800   -3.3060 N.ar   31  HIS31      -0.2212
     11  N         59.5180    3.3390   -6.8330 N.3    33  ASN33      -0.1240
     12  CA        60.1560    2.0670   -7.1830 C.3    33  ASN33       0.1653
     13  C         59.6630    1.4260   -8.4790 C.2    33  ASN33       0.2266
     14  O         60.1780    0.3900   -8.8880 O.2    33  ASN33      -0.2867
     15  CB        60.0070    1.0660   -6.0330 C.3    33  ASN33       0.1155
     16  CG        58.5680    0.6660   -5.7810 C.2    33  ASN33       0.2627
     17  OD1       58.2570    0.0600   -4.7600 O.2    33  ASN33      -0.2716
     18  ND2       57.6830    1.0000   -6.7110 N.am   33  ASN33      -0.0877
     19  N         50.8300    0.6940   -6.4140 N.3    37  TYR37      -0.1241
     20  CA        50.1380    0.1050   -5.2860 C.3    37  TYR37       0.1605
     21  C         48.6700    0.4680   -5.1400 C.2    37  TYR37       0.2264
     22  O         48.2940    1.1600   -4.1870 O.2    37  TYR37      -0.2867
     23  CB        50.8870    0.4400   -3.9990 C.3    37  TYR37       0.0534
     24  CG        52.2670   -0.1630   -3.9650 C.ar   37  TYR37      -0.0201
     25  CD1       52.4360   -1.5450   -3.8620 C.ar   37  TYR37      -0.0009
     26  CD2       53.4060    0.6330   -4.0990 C.ar   37  TYR37      -0.0009
     27  CE1       53.6950   -2.1210   -3.8990 C.ar   37  TYR37       0.0417
     28  CE2       54.6750    0.0630   -4.1380 C.ar   37  TYR37       0.0417
     29  CZ        54.8070   -1.3170   -4.0450 C.ar   37  TYR37       0.1957
     30  OH        56.0420   -1.9110   -4.1520 O.3    37  TYR37      -0.2866
     31  N         44.9570   -0.9880   -4.5310 N.3    39  GLU39      -0.1245
     32  CA        44.3240   -2.1710   -3.9830 C.3    39  GLU39       0.1567
     33  C         42.8420   -2.0100   -3.8500 C.2    39  GLU39       0.2260
     34  O         42.3320   -0.8950   -3.8250 O.2    39  GLU39      -0.2867
     35  CB        44.9360   -2.4830   -2.6150 C.3    39  GLU39       0.0388
     36  CG        46.4470   -2.5990   -2.6790 C.3    39  GLU39       0.1160
     37  CD        47.1280   -2.5830   -1.3150 C.2    39  GLU39       0.3649
     38  OE1       46.4370   -2.6090   -0.2700 O.co2  39  GLU39      -0.2457
     39  OE2       48.3740   -2.5450   -1.2980 O.co2  39  GLU39      -0.2457
     40  N         39.4560   -3.4490   -1.5740 N.3    41  TYR41      -0.1241
     41  CA        39.0140   -4.1490   -0.3850 C.3    41  TYR41       0.1605
     42  C         37.5110   -4.3110   -0.3320 C.2    41  TYR41       0.2264
     43  O         36.7630   -3.5040   -0.8830 O.2    41  TYR41      -0.2867
     44  CB        39.4640   -3.4040    0.8720 C.3    41  TYR41       0.0534
     45  CG        40.9560   -3.3610    1.0650 C.ar   41  TYR41      -0.0201
     46  CD1       41.6150   -4.3400    1.8100 C.ar   41  TYR41      -0.0009
     47  CD2       41.7140   -2.3360    0.5090 C.ar   41  TYR41      -0.0009
     48  CE1       43.0110   -4.2930    2.0030 C.ar   41  TYR41       0.0417
     49  CE2       43.0970   -2.2810    0.6900 C.ar   41  TYR41       0.0417
     50  CZ        43.7340   -3.2590    1.4300 C.ar   41  TYR41       0.1957
     51  OH        45.0970   -3.2080    1.5520 O.3    41  TYR41      -0.2866
     52  N         42.3170    1.5840   -2.7420 N.3    94  PHE94      -0.1241
     53  CA        43.3320    2.1740   -1.8360 C.3    94  PHE94       0.1605
     54  C         44.6050    2.3420   -2.6200 C.2    94  PHE94       0.2264
     55  O         44.9360    1.5960   -3.5300 O.2    94  PHE94      -0.2867
     56  CB        43.5030    1.2800   -0.6220 C.3    94  PHE94       0.0534
     57  CG        44.6980    1.4960    0.2420 C.ar   94  PHE94      -0.0203
     58  CD1       44.6580    2.5600    1.1780 C.ar   94  PHE94      -0.0042
     59  CD2       45.9230    0.9720    0.0140 C.ar   94  PHE94      -0.0042
     60  CE1       45.7790    2.8580    1.9600 C.ar   94  PHE94      -0.0003
     61  CE2       47.0350    1.1860    0.7780 C.ar   94  PHE94      -0.0003
     62  CZ        46.9520    2.1000    1.7850 C.ar   94  PHE94      -0.0000
     63  N         48.7860    2.9060   -1.9870 N.3    96  GLY96      -0.1225
     64  CA        49.8530    2.8960   -1.0080 C.3    96  GLY96       0.1811
     65  C         51.1340    3.3510   -1.6600 C.2    96  GLY96       0.2280
     66  O         52.2260    2.9500   -1.2630 O.2    96  GLY96      -0.2866
     67  N         52.4670    8.8810    0.3870 N.3    99  VAL99      -0.1245
     68  CA        51.9750    9.2310    1.7090 C.3    99  VAL99       0.1561
     69  C         51.4360   10.6590    1.6160 C.2    99  VAL99       0.2260
     70  O         52.0150   11.5000    0.9290 O.2    99  VAL99      -0.2867
     71  CB        53.0980    9.1550    2.7740 C.3    99  VAL99       0.0252
     72  CG1       53.8690    7.8470    2.6260 C.3    99  VAL99       0.0019
     73  CG2       54.0330   10.3440    2.6460 C.3    99  VAL99       0.0019
     74  N         48.8480    7.7020    2.5670 N.3   101  LEU101     -0.1245
     75  CA        48.1280    6.6820    1.8270 C.3   101  LEU101      0.1561
     76  C         46.6540    6.9960    1.9960 C.2   101  LEU101      0.2260
     77  O         46.2330    7.4610    3.0550 O.2   101  LEU101     -0.2867
     78  CB        48.4570    5.2970    2.3910 C.3   101  LEU101      0.0270
     79  CG        49.9550    5.0340    2.6170 C.3   101  LEU101      0.0019
     80  CD1       50.1510    3.5860    2.9640 C.3   101  LEU101      0.0001
     81  CD2       50.7710    5.3760    1.3830 C.3   101  LEU101      0.0001
     82  N         42.2990    5.9680    0.9320 N.3   103  PHE103     -0.1241
     83  CA        41.2640    5.0540    0.4860 C.3   103  PHE103      0.1605
     84  C         40.1990    5.8440   -0.2420 C.2   103  PHE103      0.2264
     85  O         40.0900    7.0630   -0.0770 O.2   103  PHE103     -0.2867
     86  CB        40.5650    4.4010    1.6800 C.3   103  PHE103      0.0534
     87  CG        41.4500    3.5320    2.5130 C.ar  103  PHE103     -0.0203
     88  CD1       41.6110    2.1830    2.2030 C.ar  103  PHE103     -0.0042
     89  CD2       42.0990    4.0530    3.6300 C.ar  103  PHE103     -0.0042
     90  CE1       42.4000    1.3640    3.0000 C.ar  103  PHE103     -0.0003
     91  CE2       42.8930    3.2410    4.4300 C.ar  103  PHE103     -0.0003
     92  CZ        43.0420    1.8940    4.1180 C.ar  103  PHE103     -0.0000
@<TRIPOS>BOND
     1    14    13    2
     2    13    12    1
     3     4     3    2
     4     1     2    1
     5     3     2    1
     6    12    11    1
     7    12    15    1
     8    18    16   am
     9     2     5    1
    10    19    20    1
    11    15    16    1
    12    16    17    2
    13     5     6    1
    14    20    21    1
    15    20    23    1
    16    21    22    2
    17     6     8   ar
    18     6     7   ar
    19     8    10   ar
    20    31    32    1
    21    30    29    1
    22    28    26   ar
    23    28    29   ar
    24    26    24   ar
    25    29    27   ar
    26    23    24    1
    27    32    33    1
    28    32    35    1
    29    24    25   ar
    30    27    25   ar
    31    33    34    2
    32    55    54    2
    33     7     9   ar
    34    10     9   ar
    35    52    53    1
    36    36    35    1
    37    36    37    1
    38    54    53    1
    39    63    64    1
    40    53    56    1
    41    65    66    2
    42    65    64    1
    43    40    41    1
    44    37    39   ar
    45    37    38   ar
    46    43    42    2
    47    56    57    1
    48    41    42    1
    49    41    44    1
    50    84    85    2
    51    84    83    1
    52    59    57   ar
    53    59    61   ar
    54    57    58   ar
    55    67    68    1
    56    83    82    1
    57    83    86    1
    58    47    49   ar
    59    47    45   ar
    60    49    50   ar
    61    61    62   ar
    62    44    45    1
    63    70    69    2
    64    45    46   ar
    65    58    60   ar
    66    81    79    1
    67    50    51    1
    68    50    48   ar
    69    69    68    1
    70    86    87    1
    71    68    71    1
    72    62    60   ar
    73    46    48   ar
    74    75    76    1
    75    75    78    1
    76    75    74    1
    77    76    77    2
    78    88    87   ar
    79    88    90   ar
    80    78    79    1
    81    87    89   ar
    82    79    80    1
    83    72    71    1
    84    73    71    1
    85    90    92   ar
    86    89    91   ar
    87    92    91   ar
