@<TRIPOS>MOLECULE
tmp/2ddqA01.pdb
 100 100 0 0 0
SMALL
GASTEIGER

@<TRIPOS>ATOM
      1  N         56.6220   -3.1060    7.8640 N.3    33  VAL33      -0.1245
      2  CA        56.2880   -2.0060    8.7530 C.3    33  VAL33       0.1561
      3  C         54.9570   -2.4550    9.3470 C.2    33  VAL33       0.2260
      4  O         54.5130   -3.5630    9.0830 O.2    33  VAL33      -0.2867
      5  CB        56.0820   -0.6860    7.9740 C.3    33  VAL33       0.0252
      6  CG1       57.3750   -0.2750    7.2950 C.3    33  VAL33       0.0019
      7  CG2       54.9910   -0.8630    6.9300 C.3    33  VAL33       0.0019
      8  N         51.1770   -0.8130    9.6720 N.3    35  HIS35      -0.1241
      9  CA        50.2900    0.3150    9.4020 C.3    35  HIS35       0.1621
     10  C         49.1220    0.3190   10.3690 C.2    35  HIS35       0.2264
     11  O         48.7360   -0.7230   10.8850 O.2    35  HIS35      -0.2867
     12  CB        49.7070    0.2370    7.9830 C.3    35  HIS35       0.0745
     13  CG        50.7290    0.3410    6.8970 C.ar   35  HIS35       0.0817
     14  ND1       51.3740   -0.7590    6.3730 N.ar   35  HIS35      -0.2268
     15  CD2       51.2370    1.4180    6.2540 C.ar   35  HIS35       0.1154
     16  CE1       52.2370   -0.3640    5.4550 C.ar   35  HIS35       0.1986
     17  NE2       52.1730    0.9520    5.3640 N.ar   35  HIS35      -0.2212
     18  N         45.0860    1.8670   10.7560 N.3    37  VAL37      -0.1245
     19  CA        43.9570    2.4240   10.0390 C.3    37  VAL37       0.1561
     20  C         42.8230    2.7280   10.9970 C.2    37  VAL37       0.2260
     21  O         42.5060    1.9220   11.8760 O.2    37  VAL37      -0.2867
     22  CB        43.4600    1.4250    8.9410 C.3    37  VAL37       0.0252
     23  CG1       42.1810    1.9210    8.3150 C.3    37  VAL37       0.0019
     24  CG2       44.5320    1.2560    7.8680 C.3    37  VAL37       0.0019
     25  N         44.1860    6.1130    6.7570 N.3    47  TRP47      -0.1241
     26  CA        45.5070    5.6030    7.0720 C.3    47  TRP47       0.1605
     27  C         46.1320    6.5750    8.0730 C.2    47  TRP47       0.2264
     28  O         46.3060    7.7560    7.7650 O.2    47  TRP47      -0.2867
     29  CB        46.3440    5.5390    5.8010 C.3    47  TRP47       0.0550
     30  CG        47.7260    5.0490    6.0290 C.ar   47  TRP47       0.0003
     31  CD1       48.1150    3.7680    6.2940 C.ar   47  TRP47       0.0946
     32  CD2       48.9140    5.8380    6.0330 C.ar   47  TRP47       0.0152
     33  NE1       49.4800    3.7100    6.4630 N.ar   47  TRP47      -0.2442
     34  CE2       49.9950    4.9690    6.3070 C.ar   47  TRP47       0.0810
     35  CE3       49.1720    7.2010    5.8320 C.ar   47  TRP47       0.0012
     36  CZ2       51.3140    5.4150    6.3830 C.ar   47  TRP47       0.0191
     37  CZ3       50.4830    7.6490    5.9100 C.ar   47  TRP47       0.0001
     38  CH2       51.5410    6.7550    6.1840 C.ar   47  TRP47       0.0015
     39  N         52.5590    4.6090    9.8730 N.3    50  TYR50      -0.1241
     40  CA        53.2060    3.3290   10.1440 C.3    50  TYR50       0.1605
     41  C         54.5230    3.4550   10.9120 C.2    50  TYR50       0.2264
     42  O         55.1240    4.5230   10.9590 O.2    50  TYR50      -0.2867
     43  CB        53.4550    2.5620    8.8260 C.3    50  TYR50       0.0534
     44  CG        54.6420    3.0300    8.0010 C.ar   50  TYR50      -0.0201
     45  CD1       55.9280    3.0520    8.5380 C.ar   50  TYR50      -0.0009
     46  CD2       54.4780    3.4370    6.6760 C.ar   50  TYR50      -0.0009
     47  CE1       57.0190    3.4690    7.7850 C.ar   50  TYR50       0.0417
     48  CE2       55.5680    3.8550    5.9090 C.ar   50  TYR50       0.0417
     49  CZ        56.8340    3.8690    6.4740 C.ar   50  TYR50       0.1957
     50  OH        57.9220    4.2900    5.7440 O.3    50  TYR50      -0.2866
     51  N         58.3090    1.3370   11.3920 N.3    52  ASN52      -0.1240
     52  CA        59.1540    0.2650   10.8620 C.3    52  ASN52       0.1653
     53  C         59.8460   -0.3330   12.0940 C.2    52  ASN52       0.2266
     54  O         60.7550    0.2810   12.6420 O.2    52  ASN52      -0.2867
     55  CB        60.2090    0.8240    9.8990 C.3    52  ASN52       0.1155
     56  CG        61.0680   -0.2660    9.2740 C.2    52  ASN52       0.2627
     57  OD1       61.1690   -1.3670    9.8070 O.2    52  ASN52      -0.2716
     58  ND2       61.7010    0.0430    8.1490 N.am   52  ASN52      -0.0877
     59  N         48.1130   -3.4730   10.5450 N.3    97  ALA97      -0.1231
     60  CA        48.3000   -4.3840    9.4330 C.3    97  ALA97       0.1679
     61  C         49.6780   -4.2310    8.8610 C.2    97  ALA97       0.2434
     62  O         50.1050   -3.1230    8.5550 O.2    97  ALA97      -0.2733
     63  CB        47.2620   -4.1210    8.3500 C.3    97  ALA97       0.0304
     64  N         50.4070   -5.3450    8.7390 N.am   98  PRO98      -0.2718
     65  CA        51.7610   -5.3200    8.1850 C.3    98  PRO98       0.1535
     66  C         51.7210   -5.0610    6.6680 C.2    98  PRO98       0.2599
     67  O         52.6590   -4.5060    6.1020 O.2    98  PRO98      -0.2715
     68  CB        52.3130   -6.6950    8.5700 C.3    98  PRO98       0.0310
     69  CG        51.0920   -7.5480    8.6080 C.3    98  PRO98       0.0237
     70  CD        50.0960   -6.6640    9.3080 C.3    98  PRO98       0.0939
     71  N         50.6300   -5.4640    6.0240 N.am   99  TYR99      -0.1960
     72  CA        50.4470   -5.2230    4.5930 C.3    99  TYR99       0.1771
     73  C         48.9870   -5.5020    4.2630 C.2    99  TYR99       0.2620
     74  O         48.2570   -6.0190    5.1070 O.2    99  TYR99      -0.2715
     75  CB        51.4260   -6.0660    3.7510 C.3    99  TYR99       0.0574
     76  CG        51.1710   -7.5600    3.6530 C.ar   99  TYR99      -0.0198
     77  CD1       50.4120   -8.0900    2.6030 C.ar   99  TYR99      -0.0009
     78  CD2       51.7460   -8.4530    4.5630 C.ar   99  TYR99      -0.0009
     79  CE1       50.2380   -9.4710    2.4560 C.ar   99  TYR99       0.0417
     80  CE2       51.5750   -9.8380    4.4260 C.ar   99  TYR99       0.0417
     81  CZ        50.8210  -10.3380    3.3670 C.ar   99  TYR99       0.1957
     82  OH        50.6460  -11.6960    3.2040 O.3    99  TYR99      -0.2866
     83  N         48.5520   -5.1450    3.0590 N.am  100  GLY100     -0.1954
     84  CA        47.1570   -5.3300    2.6850 C.3   100  GLY100      0.1869
     85  C         46.4500   -6.6550    2.9460 C.2   100  GLY100      0.2309
     86  O         45.2570   -6.6750    3.2590 O.2   100  GLY100     -0.2863
     87  N         45.0310   -8.0370    8.2510 N.3   103  TRP103     -0.1241
     88  CA        44.6340   -6.9920    9.1970 C.3   103  TRP103      0.1605
     89  C         44.2750   -7.5970   10.5520 C.2   103  TRP103      0.2264
     90  O         43.8220   -8.7380   10.6260 O.2   103  TRP103     -0.2867
     91  CB        43.3920   -6.2540    8.6970 C.3   103  TRP103      0.0550
     92  CG        43.5760   -5.4280    7.4800 C.ar  103  TRP103      0.0003
     93  CD1       44.1760   -5.8020    6.3170 C.ar  103  TRP103      0.0946
     94  CD2       43.0740   -4.1020    7.2660 C.ar  103  TRP103      0.0152
     95  NE1       44.0760   -4.7960    5.3900 N.ar  103  TRP103     -0.2442
     96  CE2       43.4030   -3.7400    5.9440 C.ar  103  TRP103      0.0810
     97  CE3       42.3740   -3.1860    8.0640 C.ar  103  TRP103      0.0012
     98  CZ2       43.0550   -2.4980    5.3950 C.ar  103  TRP103      0.0191
     99  CZ3       42.0280   -1.9520    7.5230 C.ar  103  TRP103      0.0001
    100  CH2       42.3690   -1.6210    6.1990 C.ar  103  TRP103      0.0015
@<TRIPOS>BOND
     1    79    77   ar
     2    79    81   ar
     3    77    76   ar
     4    84    85    1
     5    84    83    1
     6    85    86    2
     7    83    73   am
     8    82    81    1
     9    81    80   ar
    10    76    75    1
    11    76    78   ar
    12    75    72    1
    13    73    72    1
    14    73    74    2
    15    80    78   ar
    16    72    71    1
    17    17    16   ar
    18    17    15   ar
    19    95    96   ar
    20    95    93   ar
    21    98    96   ar
    22    98   100   ar
    23    16    14   ar
    24    50    49    1
    25    29    30    1
    26    29    26    1
    27    35    37   ar
    28    35    32   ar
    29    48    49   ar
    30    48    46   ar
    31    37    38   ar
    32    96    94   ar
    33    71    66   am
    34    30    32   ar
    35    30    31   ar
    36    32    34   ar
    37    67    66    2
    38    38    36   ar
    39   100    99   ar
    40    15    13   ar
    41    31    33   ar
    42    34    36   ar
    43    34    33   ar
    44    93    92   ar
    45    14    13   ar
    46    49    47   ar
    47    66    65    1
    48    46    44   ar
    49    25    26    1
    50    13    12    1
    51     7     5    1
    52    26    27    1
    53    94    92   ar
    54    94    97   ar
    55     6     5    1
    56    92    91    1
    57    99    97   ar
    58    28    27    2
    59    47    45   ar
    60     1     2    1
    61    24    22    1
    62     5     2    1
    63    12     9    1
    64    44    45   ar
    65    44    43    1
    66    58    56   am
    67    65    68    1
    68    65    64    1
    69    87    88    1
    70    23    22    1
    71    63    60    1
    72    62    61    2
    73    68    69    1
    74    69    70    1
    75    91    88    1
    76    64    61   am
    77    64    70    1
    78     2     3    1
    79    43    40    1
    80    61    60    1
    81    22    19    1
    82     4     3    2
    83    88    89    1
    84    56    57    2
    85    56    55    1
    86     9     8    1
    87     9    10    1
    88    60    59    1
    89    39    40    1
    90    55    52    1
    91    19    18    1
    92    19    20    1
    93    40    41    1
    94    10    11    2
    95    89    90    2
    96    52    51    1
    97    52    53    1
    98    41    42    2
    99    20    21    2
   100    53    54    2
