@<TRIPOS>MOLECULE
tmp/2ddtA00.pdb
 112 115 0 0 0
SMALL
GASTEIGER

@<TRIPOS>ATOM
      1  N          4.4730  -19.6460    9.5260 N.3    17  LEU17      -0.1231
      2  CA         3.3530  -20.3220    8.8790 C.3    17  LEU17       0.1693
      3  C          3.7050  -20.7600    7.4580 C.2    17  LEU17       0.2592
      4  O          3.1780  -21.7490    6.9570 O.2    17  LEU17      -0.2718
      5  CB         2.1180  -19.4240    8.8550 C.3    17  LEU17       0.0284
      6  CG         1.4880  -19.0550   10.2050 C.3    17  LEU17       0.0019
      7  CD1        0.2130  -18.2400    9.9730 C.3    17  LEU17       0.0001
      8  CD2        1.1620  -20.3150   10.9880 C.3    17  LEU17       0.0001
      9  N          4.5990  -20.0070    6.8180 N.am   18  TYR18      -0.1963
     10  CA         5.0450  -20.2800    5.4470 C.3    18  TYR18       0.1756
     11  C          6.5610  -20.0980    5.3880 C.2    18  TYR18       0.2461
     12  O          7.0620  -19.0810    4.9120 O.2    18  TYR18      -0.2730
     13  CB         4.3660  -19.3110    4.4770 C.3    18  TYR18       0.0574
     14  CG         2.8610  -19.4340    4.4790 C.ar   18  TYR18      -0.0198
     15  CD1        2.2280  -20.4630    3.7850 C.ar   18  TYR18      -0.0009
     16  CD2        2.0740  -18.5550    5.2190 C.ar   18  TYR18      -0.0009
     17  CE1        0.8470  -20.6180    3.8280 C.ar   18  TYR18       0.0417
     18  CE2        0.6890  -18.7030    5.2740 C.ar   18  TYR18       0.0417
     19  CZ         0.0850  -19.7370    4.5770 C.ar   18  TYR18       0.1957
     20  OH        -1.2800  -19.9040    4.6370 O.3    18  TYR18      -0.2866
     21  N          7.3110  -21.1050    5.8520 N.am   19  PRO19      -0.2716
     22  CA         8.7750  -21.0550    5.8660 C.3    19  PRO19       0.1536
     23  C          9.5250  -20.9390    4.5420 C.2    19  PRO19       0.2599
     24  O         10.6270  -20.3990    4.5120 O.2    19  PRO19      -0.2715
     25  CB         9.1500  -22.3280    6.6060 C.3    19  PRO19       0.0310
     26  CG         8.0610  -23.2780    6.1820 C.3    19  PRO19       0.0237
     27  CD         6.8280  -22.4130    6.3220 C.3    19  PRO19       0.0939
     28  N          8.9350  -21.4190    3.4540 N.am   20  ASN20      -0.1959
     29  CA         9.6330  -21.4150    2.1690 C.3    20  ASN20       0.1819
     30  C          9.1110  -20.5320    1.0430 C.2    20  ASN20       0.2621
     31  O          9.0380  -20.9660   -0.1090 O.2    20  ASN20      -0.2715
     32  CB         9.7360  -22.8600    1.6810 C.3    20  ASN20       0.1195
     33  CG        10.4770  -23.7380    2.6590 C.2    20  ASN20       0.2630
     34  OD1       11.6710  -23.5510    2.8890 O.2    20  ASN20      -0.2716
     35  ND2        9.7720  -24.6890    3.2540 N.am   20  ASN20      -0.0877
     36  N          8.7620  -19.2900    1.3610 N.am   21  TRP21      -0.1974
     37  CA         8.2820  -18.3780    0.3330 C.3    21  TRP21       0.1640
     38  C          9.3530  -17.3590   -0.0400 C.2    21  TRP21       0.2290
     39  O          9.0650  -16.3430   -0.6750 O.2    21  TRP21      -0.2864
     40  CB         6.9900  -17.6860    0.7800 C.3    21  TRP21       0.0576
     41  CG         5.7820  -18.2420    0.0710 C.ar   21  TRP21       0.0006
     42  CD1        4.6340  -18.7190    0.6420 C.ar   21  TRP21       0.0946
     43  CD2        5.6200  -18.3930   -1.3430 C.ar   21  TRP21       0.0152
     44  NE1        3.7690  -19.1600   -0.3340 N.ar   21  TRP21      -0.2442
     45  CE2        4.3500  -18.9690   -1.5600 C.ar   21  TRP21       0.0810
     46  CE3        6.4260  -18.0950   -2.4520 C.ar   21  TRP21       0.0012
     47  CZ2        3.8670  -19.2540   -2.8420 C.ar   21  TRP21       0.0191
     48  CZ3        5.9460  -18.3780   -3.7240 C.ar   21  TRP21       0.0001
     49  CH2        4.6770  -18.9520   -3.9090 C.ar   21  TRP21       0.0015
     50  N          1.0000  -19.6870   -9.3870 N.3   225  TYR225     -0.1241
     51  CA         1.1240  -20.9210   -8.6230 C.3   225  TYR225      0.1605
     52  C         -0.0550  -21.0900   -7.6710 C.2   225  TYR225      0.2264
     53  O         -0.6410  -22.1690   -7.5740 O.2   225  TYR225     -0.2867
     54  CB         2.4220  -20.9360   -7.8080 C.3   225  TYR225      0.0534
     55  CG         2.5400  -22.1590   -6.9230 C.ar  225  TYR225     -0.0201
     56  CD1        2.8650  -23.4040   -7.4620 C.ar  225  TYR225     -0.0009
     57  CD2        2.2690  -22.0840   -5.5570 C.ar  225  TYR225     -0.0009
     58  CE1        2.9150  -24.5470   -6.6630 C.ar  225  TYR225      0.0417
     59  CE2        2.3130  -23.2200   -4.7480 C.ar  225  TYR225      0.0417
     60  CZ         2.6360  -24.4480   -5.3080 C.ar  225  TYR225      0.1957
     61  OH         2.6760  -25.5730   -4.5140 O.3   225  TYR225     -0.2866
     62  N         13.5140  -21.7160   -3.9380 N.3   264  VAL264     -0.1245
     63  CA        13.1210  -22.2250   -2.6300 C.3   264  VAL264      0.1561
     64  C         12.7500  -23.6940   -2.8050 C.2   264  VAL264      0.2260
     65  O         12.3970  -24.1330   -3.9020 O.2   264  VAL264     -0.2867
     66  CB        11.8910  -21.4800   -2.0520 C.3   264  VAL264      0.0252
     67  CG1       12.2330  -20.0200   -1.7930 C.3   264  VAL264      0.0019
     68  CG2       10.7140  -21.6010   -3.0010 C.3   264  VAL264      0.0019
     69  N         10.2960  -26.8120   -1.4010 N.3   266  SER266     -0.1202
     70  CA         9.0780  -27.1210   -0.6580 C.3   266  SER266      0.2020
     71  C          8.7250  -28.5840   -0.8730 C.2   266  SER266      0.2618
     72  O          8.4690  -29.0080   -1.9970 O.2   266  SER266     -0.2717
     73  CB         7.9190  -26.2480   -1.1220 C.3   266  SER266      0.2103
     74  OG         8.1610  -24.8850   -0.8160 O.3   266  SER266     -0.2182
     75  N          8.7240  -29.3510    0.2110 N.am  267  TRP267     -0.1975
     76  CA         8.4010  -30.7690    0.1420 C.3   267  TRP267      0.1640
     77  C          9.3070  -31.4910   -0.8560 C.2   267  TRP267      0.2290
     78  O          8.8390  -32.1560   -1.7830 O.2   267  TRP267     -0.2864
     79  CB         6.9230  -30.9340   -0.2250 C.3   267  TRP267      0.0576
     80  CG         6.0310  -30.1630    0.7070 C.ar  267  TRP267      0.0006
     81  CD1        5.9150  -30.3380    2.0580 C.ar  267  TRP267      0.0946
     82  CD2        5.1950  -29.0440    0.3760 C.ar  267  TRP267      0.0152
     83  NE1        5.0660  -29.3960    2.5890 N.ar  267  TRP267     -0.2442
     84  CE2        4.6100  -28.5890    1.5810 C.ar  267  TRP267      0.0810
     85  CE3        4.8870  -28.3800   -0.8200 C.ar  267  TRP267      0.0012
     86  CZ2        3.7320  -27.4960    1.6250 C.ar  267  TRP267      0.0191
     87  CZ3        4.0120  -27.2920   -0.7770 C.ar  267  TRP267      0.0001
     88  CH2        3.4460  -26.8630    0.4410 C.ar  267  TRP267      0.0015
     89  N         11.5130  -24.8920   -6.4510 N.3   271  TYR271     -0.1241
     90  CA        10.7020  -23.9830   -7.2490 C.3   271  TYR271      0.1605
     91  C         11.4770  -22.6980   -7.4830 C.2   271  TYR271      0.2264
     92  O         12.1120  -22.1730   -6.5680 O.2   271  TYR271     -0.2867
     93  CB         9.3880  -23.6490   -6.5380 C.3   271  TYR271      0.0534
     94  CG         8.5190  -24.8450   -6.2300 C.ar  271  TYR271     -0.0201
     95  CD1        8.8630  -25.7380   -5.2150 C.ar  271  TYR271     -0.0009
     96  CD2        7.3450  -25.0780   -6.9440 C.ar  271  TYR271     -0.0009
     97  CE1        8.0580  -26.8310   -4.9140 C.ar  271  TYR271      0.0417
     98  CE2        6.5320  -26.1700   -6.6510 C.ar  271  TYR271      0.0417
     99  CZ         6.8950  -27.0410   -5.6340 C.ar  271  TYR271      0.1957
    100  OH         6.0940  -28.1150   -5.3270 O.3   271  TYR271     -0.2866
    101  N         11.3500  -18.6730   -9.1000 N.3   273  TYR273     -0.1241
    102  CA        10.4610  -17.5750   -9.4490 C.3   273  TYR273      0.1605
    103  C         11.2760  -16.3610   -9.8490 C.2   273  TYR273      0.2264
    104  O         12.4670  -16.2900   -9.5650 O.2   273  TYR273     -0.2867
    105  CB         9.5620  -17.2140   -8.2660 C.3   273  TYR273      0.0534
    106  CG         8.6300  -18.3230   -7.8390 C.ar  273  TYR273     -0.0201
    107  CD1        9.0230  -19.2720   -6.8940 C.ar  273  TYR273     -0.0009
    108  CD2        7.3570  -18.4370   -8.3970 C.ar  273  TYR273     -0.0009
    109  CE1        8.1600  -20.3120   -6.5160 C.ar  273  TYR273      0.0417
    110  CE2        6.4970  -19.4700   -8.0280 C.ar  273  TYR273      0.0417
    111  CZ         6.9020  -20.4010   -7.0880 C.ar  273  TYR273      0.1957
    112  OH         6.0440  -21.4190   -6.7290 O.3   273  TYR273     -0.2866
@<TRIPOS>BOND
     1   103   104    2
     2   103   102    1
     3   102   101    1
     4   102   105    1
     5    50    51    1
     6    51    54    1
     7    51    52    1
     8   108   110   ar
     9   108   106   ar
    10   105   106    1
    11   110   111   ar
    12   106   107   ar
    13    54    55    1
    14    52    53    2
    15    91    90    1
    16    91    92    2
    17    56    55   ar
    18    56    58   ar
    19    90    93    1
    20    90    89    1
    21   111   112    1
    22   111   109   ar
    23    96    98   ar
    24    96    94   ar
    25    55    57   ar
    26   107   109   ar
    27    58    60   ar
    28    98    99   ar
    29    93    94    1
    30    94    95   ar
    31    99   100    1
    32    99    97   ar
    33    57    59   ar
    34    60    59   ar
    35    60    61    1
    36    95    97   ar
    37    62    63    1
    38    49    48   ar
    39    49    47   ar
    40    65    64    2
    41    48    46   ar
    42    68    66    1
    43    47    45   ar
    44    64    63    1
    45    63    66    1
    46    46    43   ar
    47    66    67    1
    48    72    71    2
    49    78    77    2
    50    45    43   ar
    51    45    44   ar
    52    69    70    1
    53    43    41   ar
    54    73    74    1
    55    73    70    1
    56    71    70    1
    57    71    75   am
    58    77    76    1
    59    85    87   ar
    60    85    82   ar
    61    87    88   ar
    62    39    38    2
    63    44    42   ar
    64    79    76    1
    65    79    80    1
    66    31    30    2
    67    38    37    1
    68    41    42   ar
    69    41    40    1
    70    76    75    1
    71    37    40    1
    72    37    36    1
    73    82    80   ar
    74    82    84   ar
    75    88    86   ar
    76    80    81   ar
    77    30    36   am
    78    30    29    1
    79    84    86   ar
    80    84    83   ar
    81    32    29    1
    82    32    33    1
    83    81    83   ar
    84    29    28    1
    85    33    34    2
    86    33    35   am
    87    28    23   am
    88    15    17   ar
    89    15    14   ar
    90    17    19   ar
    91    13    14    1
    92    13    10    1
    93    14    16   ar
    94    24    23    2
    95    23    22    1
    96    19    20    1
    97    19    18   ar
    98    12    11    2
    99    16    18   ar
   100    11    10    1
   101    11    21   am
   102    10     9    1
   103    21    22    1
   104    21    27    1
   105    22    25    1
   106    26    27    1
   107    26    25    1
   108     9     3   am
   109     4     3    2
   110     3     2    1
   111     5     2    1
   112     5     6    1
   113     2     1    1
   114     7     6    1
   115     6     8    1
