@<TRIPOS>MOLECULE
tmp/2ddwB00.pdb
 103 96 0 0 0
SMALL
GASTEIGER

@<TRIPOS>ATOM
      1  N         19.0560   -2.5750   32.9530 N.3    16  SER16      -0.1217
      2  CA        18.1360   -3.4110   33.7190 C.3    16  SER16       0.1889
      3  C         17.5810   -2.6940   34.9370 C.2    16  SER16       0.2288
      4  O         17.9400   -1.5540   35.2000 O.2    16  SER16      -0.2866
      5  CB        18.8350   -4.6890   34.1770 C.3    16  SER16       0.2089
      6  OG        19.3020   -5.4350   33.0750 O.3    16  SER16      -0.2183
      7  N         16.1130   -4.3960   38.8210 N.3    18  VAL18      -0.1245
      8  CA        15.6160   -5.5150   39.6370 C.3    18  VAL18       0.1561
      9  C         14.8310   -5.1480   40.8920 C.2    18  VAL18       0.2260
     10  O         15.3200   -4.3950   41.7350 O.2    18  VAL18      -0.2867
     11  CB        16.7520   -6.4200   40.1020 C.3    18  VAL18       0.0252
     12  CG1       17.3310   -7.1530   38.9370 C.3    18  VAL18       0.0019
     13  CG2       17.8090   -5.5970   40.7930 C.3    18  VAL18       0.0019
     14  N         21.7250   -4.1370   40.9620 N.3    23  VAL23      -0.1231
     15  CA        22.3200   -4.2490   39.6350 C.3    23  VAL23       0.1692
     16  C         21.5810   -3.2360   38.7800 C.2    23  VAL23       0.2592
     17  O         20.4210   -2.9310   39.0350 O.2    23  VAL23      -0.2718
     18  CB        22.1330   -5.6770   38.9900 C.3    23  VAL23       0.0266
     19  CG1       22.7790   -6.7430   39.8400 C.3    23  VAL23       0.0020
     20  CG2       20.6690   -5.9990   38.7980 C.3    23  VAL23       0.0020
     21  N         22.2460   -2.7080   37.7640 N.am   24  GLY24      -0.1957
     22  CA        21.5960   -1.7300   36.9070 C.3    24  GLY24       0.1869
     23  C         21.0970   -0.4850   37.6340 C.2    24  GLY24       0.2309
     24  O         21.5370   -0.1680   38.7480 O.2    24  GLY24      -0.2863
     25  N         14.7140   -4.5660   30.9370 N.3    45  VAL45      -0.1245
     26  CA        14.2110   -5.8310   31.4300 C.3    45  VAL45       0.1561
     27  C         13.7140   -5.5430   32.8430 C.2    45  VAL45       0.2260
     28  O         14.0880   -4.5370   33.4390 O.2    45  VAL45      -0.2867
     29  CB        15.3300   -6.8680   31.5010 C.3    45  VAL45       0.0252
     30  CG1       15.8070   -7.1840   30.1210 C.3    45  VAL45       0.0019
     31  CG2       16.4840   -6.3330   32.3170 C.3    45  VAL45       0.0019
     32  N         13.3840   -7.8870   36.0660 N.3    47  LEU47      -0.1245
     33  CA        13.4990   -9.1490   36.7550 C.3    47  LEU47       0.1561
     34  C         13.4830   -9.0110   38.2550 C.2    47  LEU47       0.2260
     35  O         14.0540   -8.0850   38.8290 O.2    47  LEU47      -0.2867
     36  CB        14.7900   -9.8540   36.3450 C.3    47  LEU47       0.0270
     37  CG        14.8770  -10.2940   34.8890 C.3    47  LEU47       0.0019
     38  CD1       16.3270  -10.5670   34.5140 C.3    47  LEU47       0.0001
     39  CD2       13.9910  -11.5210   34.6930 C.3    47  LEU47       0.0001
     40  N         18.5930  -10.8540   40.1460 N.3    50  THR50      -0.1204
     41  CA        19.4480  -11.2080   39.0100 C.3    50  THR50       0.1979
     42  C         19.3980  -12.7010   38.7580 C.2    50  THR50       0.2460
     43  O         19.2170  -13.5060   39.6620 O.2    50  THR50      -0.2732
     44  CB        20.9250  -10.7950   39.1820 C.3    50  THR50       0.1783
     45  OG1       21.6110  -11.7630   39.9870 O.3    50  THR50      -0.2211
     46  CG2       21.0190   -9.3990   39.7960 C.3    50  THR50       0.0376
     47  N         19.5670  -13.0890   37.5030 N.am   51  PRO51      -0.2717
     48  CA        19.5310  -14.4910   37.0990 C.3    51  PRO51       0.1535
     49  C         20.4480  -15.4260   37.8790 C.2    51  PRO51       0.2598
     50  O         20.1630  -16.6200   38.0160 O.2    51  PRO51      -0.2715
     51  CB        19.9000  -14.4230   35.6190 C.3    51  PRO51       0.0310
     52  CG        19.4260  -13.0360   35.2100 C.3    51  PRO51       0.0237
     53  CD        19.8820  -12.2120   36.3670 C.3    51  PRO51       0.0939
     54  N         21.5380  -14.8740   38.3960 N.am   52  HIS52      -0.1974
     55  CA        22.5210  -15.6600   39.1240 C.3    52  HIS52       0.1656
     56  C         22.1050  -16.0390   40.5380 C.2    52  HIS52       0.2291
     57  O         22.9100  -15.9990   41.4600 O.2    52  HIS52      -0.2864
     58  CB        23.8600  -14.9150   39.1270 C.3    52  HIS52       0.0771
     59  CG        24.4010  -14.6440   37.7500 C.ar   52  HIS52       0.0820
     60  ND1       24.5580  -15.6330   36.8010 N.ar   52  HIS52      -0.2267
     61  CD2       24.8400  -13.4990   37.1730 C.ar   52  HIS52       0.1154
     62  CE1       25.0700  -15.1090   35.7000 C.ar   52  HIS52       0.1986
     63  NE2       25.2520  -13.8160   35.8990 N.ar   52  HIS52      -0.2212
     64  N         23.2690   -3.6250   30.3400 N.3    89  TYR89      -0.1241
     65  CA        22.7370   -4.9100   29.9140 C.3    89  TYR89       0.1605
     66  C         21.4650   -4.6670   29.1150 C.2    89  TYR89       0.2264
     67  O         20.5260   -4.0540   29.6210 O.2    89  TYR89      -0.2867
     68  CB        22.3780   -5.7720   31.1120 C.3    89  TYR89       0.0534
     69  CG        21.8480   -7.1500   30.7460 C.ar   89  TYR89      -0.0201
     70  CD1       22.6620   -8.2790   30.8310 C.ar   89  TYR89      -0.0009
     71  CD2       20.5270   -7.3290   30.3370 C.ar   89  TYR89      -0.0009
     72  CE1       22.1730   -9.5510   30.5270 C.ar   89  TYR89       0.0417
     73  CE2       20.0270   -8.5990   30.0280 C.ar   89  TYR89       0.0417
     74  CZ        20.8550   -9.7070   30.1310 C.ar   89  TYR89       0.1957
     75  OH        20.3600  -10.9750   29.8840 O.3    89  TYR89      -0.2866
     76  N         27.8450   -5.0430   27.4150 N.3   120  VAL120     -0.1245
     77  CA        27.3940   -6.1720   28.2170 C.3   120  VAL120      0.1561
     78  C         27.0260   -7.3400   27.3070 C.2   120  VAL120      0.2260
     79  O         25.9240   -7.3840   26.7570 O.2   120  VAL120     -0.2867
     80  CB        26.1540   -5.8130   29.0650 C.3   120  VAL120      0.0252
     81  CG1       25.9460   -6.8690   30.1430 C.3   120  VAL120      0.0019
     82  CG2       26.3110   -4.4220   29.6700 C.3   120  VAL120      0.0019
     83  N         27.6470   -8.8680   42.1980 N.3   210  LYS210     -0.1231
     84  CA        27.4980   -8.3000   40.8630 C.3   210  LYS210      0.1693
     85  C         27.1390   -6.8270   40.9730 C.2   210  LYS210      0.2592
     86  O         26.9250   -6.3170   42.0700 O.2   210  LYS210     -0.2718
     87  CB        26.3850   -9.0230   40.0980 C.3   210  LYS210      0.0285
     88  CG        26.7430  -10.4050   39.5740 C.3   210  LYS210      0.0035
     89  CD        27.1220  -11.3670   40.6900 C.3   210  LYS210      0.0206
     90  CE        27.5760  -12.7070   40.1270 C.3   210  LYS210      0.1093
     91  NZ        28.1270  -13.5950   41.1820 N.3   210  LYS210     -0.1314
     92  N         27.0720   -6.1510   39.8300 N.am  211  GLY211     -0.1957
     93  CA        26.7120   -4.7440   39.8210 C.3   211  GLY211      0.1869
     94  C         27.8680   -3.7830   40.0080 C.2   211  GLY211      0.2309
     95  O         27.7190   -2.5820   39.7830 O.2   211  GLY211     -0.2863
     96  N         28.1850   -1.7660   36.7940 N.3   214  ASP214     -0.1239
     97  CA        27.0570   -0.8490   36.6330 C.3   214  ASP214      0.1674
     98  C         27.3070    0.3480   37.5430 C.2   214  ASP214      0.2266
     99  O         27.1140    1.5020   37.1440 O.2   214  ASP214     -0.2867
    100  CB        25.7390   -1.5250   37.0330 C.3   214  ASP214      0.1410
    101  CG        25.2640   -2.5690   36.0170 C.2   214  ASP214      0.3668
    102  OD1       24.9820   -2.2130   34.8530 O.co2 214  ASP214     -0.2456
    103  OD2       25.1570   -3.7500   36.3900 O.co2 214  ASP214     -0.2456
@<TRIPOS>BOND
     1    79    78    2
     2    78    77    1
     3    76    77    1
     4    77    80    1
     5    80    82    1
     6    80    81    1
     7    66    67    2
     8    66    65    1
     9    75    74    1
    10    65    64    1
    11    65    68    1
    12    73    74   ar
    13    73    71   ar
    14    30    29    1
    15    74    72   ar
    16    71    69   ar
    17    72    70   ar
    18    69    70   ar
    19    69    68    1
    20    25    26    1
    21    26    29    1
    22    26    27    1
    23    29    31    1
    24    27    28    2
    25     1     2    1
    26     6     5    1
    27     2     5    1
    28     2     3    1
    29    38    37    1
    30    39    37    1
    31   102   101   ar
    32    37    36    1
    33     3     4    2
    34    52    51    1
    35    52    53    1
    36    51    48    1
    37    62    63   ar
    38    62    60   ar
    39    63    61   ar
    40   101   103   ar
    41   101   100    1
    42    32    33    1
    43    36    33    1
    44    53    47    1
    45    97    96    1
    46    97   100    1
    47    97    98    1
    48    33    34    1
    49    60    59   ar
    50    22    23    1
    51    22    21    1
    52    48    47    1
    53    48    49    1
    54    99    98    2
    55    61    59   ar
    56    47    42   am
    57    23    24    2
    58    59    58    1
    59    21    16   am
    60    49    50    2
    61    49    54   am
    62    34    35    2
    63    54    55    1
    64    42    41    1
    65    42    43    2
    66    16    17    2
    67    16    15    1
    68    20    18    1
    69     7     8    1
    70    12    11    1
    71    18    15    1
    72    18    19    1
    73    41    44    1
    74    41    40    1
    75    55    58    1
    76    55    56    1
    77    44    46    1
    78    44    45    1
    79    88    87    1
    80    88    89    1
    81    15    14    1
    82     8    11    1
    83     8     9    1
    84    95    94    2
    85    93    92    1
    86    93    94    1
    87    92    85   am
    88    87    84    1
    89    11    13    1
    90    90    89    1
    91    90    91    1
    92    56    57    2
    93    84    85    1
    94    84    83    1
    95     9    10    2
    96    85    86    2
