@<TRIPOS>MOLECULE
tmp/2ddyA00.pdb
 179 181 0 0 0
SMALL
GASTEIGER

@<TRIPOS>ATOM
      1  N          3.4880   14.5920    8.2320 N.3    73  TYR73      -0.1241
      2  CA         4.7230   14.0460    8.7870 C.3    73  TYR73       0.1605
      3  C          5.8560   14.1170    7.7520 C.2    73  TYR73       0.2264
      4  O          5.7930   13.4040    6.7530 O.2    73  TYR73      -0.2867
      5  CB         4.4810   12.5940    9.2410 C.3    73  TYR73       0.0534
      6  CG         3.3560   12.4150   10.2530 C.ar   73  TYR73      -0.0201
      7  CD1        3.3030   13.2360   11.3940 C.ar   73  TYR73      -0.0009
      8  CD2        2.3480   11.4500   10.0480 C.ar   73  TYR73      -0.0009
      9  CE1        2.2410   13.1250   12.3040 C.ar   73  TYR73       0.0417
     10  CE2        1.2830   11.3240   10.9620 C.ar   73  TYR73       0.0417
     11  CZ         1.2200   12.1730   12.0970 C.ar   73  TYR73       0.1957
     12  OH         0.1880   12.1140   12.9910 O.3    73  TYR73      -0.2866
     13  N         15.5180    4.5910    7.9670 N.3    80  ASN80      -0.1225
     14  CA        14.3500    4.6880    8.8620 C.3    80  ASN80       0.1785
     15  C         13.0570    4.2450    8.1260 C.2    80  ASN80       0.2598
     16  O         13.0620    3.1620    7.5310 O.2    80  ASN80      -0.2718
     17  CB        14.3450    6.1160    9.4650 C.3    80  ASN80       0.1169
     18  CG        13.5480    6.2770   10.7590 C.2    80  ASN80       0.2627
     19  OD1       13.8640    5.7010   11.7990 O.2    80  ASN80      -0.2716
     20  ND2       12.5440    7.1430   10.7500 N.am   80  ASN80      -0.0877
     21  N         11.9760    5.0430    8.1890 N.am   81  THR81      -0.1939
     22  CA        10.6960    4.9120    7.4800 C.3    81  THR81       0.2028
     23  C         10.8760    5.1750    5.9680 C.2    81  THR81       0.2642
     24  O         11.4540    6.1860    5.5840 O.2    81  THR81      -0.2714
     25  CB         9.7310    5.9510    8.1060 C.3    81  THR81       0.1808
     26  OG1        9.7120    5.7850    9.5160 O.3    81  THR81      -0.2208
     27  CG2        8.2800    5.8810    7.6080 C.3    81  THR81       0.0379
     28  N         10.3370    4.3100    5.0990 N.am   82  LEU82      -0.1963
     29  CA        10.4960    4.3660    3.6420 C.3    82  LEU82       0.1728
     30  C          9.2580    4.9400    2.9300 C.2    82  LEU82       0.2616
     31  O          9.3780    5.5410    1.8580 O.2    82  LEU82      -0.2715
     32  CB        10.7730    2.9530    3.0880 C.3    82  LEU82       0.0311
     33  CG        12.1170    2.3360    3.5340 C.3    82  LEU82       0.0022
     34  CD1       12.0600    1.5450    4.8500 C.3    82  LEU82       0.0001
     35  CD2       12.6120    1.3650    2.4650 C.3    82  LEU82       0.0001
     36  N          8.0640    4.7490    3.5060 N.am   83  ALA83      -0.1963
     37  CA         6.7940    5.2390    2.9840 C.3    83  ALA83       0.1728
     38  C          5.7960    5.3240    4.1490 C.2    83  ALA83       0.2616
     39  O          5.9810    4.6370    5.1550 O.2    83  ALA83      -0.2715
     40  CB         6.2960    4.3080    1.8690 C.3    83  ALA83       0.0334
     41  N          4.7580    6.1550    4.0450 N.am   84  HIS84      -0.1959
     42  CA         3.6880    6.2070    5.0380 C.3    84  HIS84       0.1787
     43  C          2.3530    6.5090    4.3570 C.2    84  HIS84       0.2620
     44  O          2.2970    7.2170    3.3490 O.2    84  HIS84      -0.2715
     45  CB         4.0120    7.2240    6.1510 C.3    84  HIS84       0.0785
     46  CG         4.2510    8.6490    5.6980 C.ar   84  HIS84       0.0821
     47  ND1        5.3950    9.3890    5.9060 N.ar   84  HIS84      -0.2267
     48  CD2        3.3700    9.4680    5.0390 C.ar   84  HIS84       0.1154
     49  CE1        5.2170   10.5980    5.3490 C.ar   84  HIS84       0.1986
     50  NE2        4.0010   10.6870    4.7870 N.ar   84  HIS84      -0.2212
     51  N          1.2620    6.0160    4.9510 N.am   85  ALA85      -0.1977
     52  CA        -0.0790    6.1440    4.4110 C.3    85  ALA85       0.1597
     53  C         -1.0700    6.3170    5.5510 C.2    85  ALA85       0.2287
     54  O         -0.7580    6.0500    6.7170 O.2    85  ALA85      -0.2864
     55  CB        -0.4220    4.9010    3.5780 C.3    85  ALA85       0.0319
     56  N         14.1630    2.8210   -5.2770 N.3   104  TRP104     -0.1241
     57  CA        13.0280    1.9650   -5.5960 C.3   104  TRP104      0.1605
     58  C         13.4110    1.0120   -6.7360 C.2   104  TRP104      0.2264
     59  O         14.1950    1.3620   -7.6160 O.2   104  TRP104     -0.2867
     60  CB        11.7930    2.8320   -5.9020 C.3   104  TRP104      0.0550
     61  CG        11.2650    3.6300   -4.7450 C.ar  104  TRP104      0.0003
     62  CD1       11.4180    4.9550   -4.5190 C.ar  104  TRP104      0.0946
     63  CD2       10.5980    3.1180   -3.5520 C.ar  104  TRP104      0.0152
     64  NE1       10.9110    5.2850   -3.2750 N.ar  104  TRP104     -0.2442
     65  CE2       10.3910    4.1890   -2.6340 C.ar  104  TRP104      0.0810
     66  CE3       10.2290    1.8300   -3.1290 C.ar  104  TRP104      0.0012
     67  CZ2        9.8400    3.9950   -1.3570 C.ar  104  TRP104      0.0191
     68  CZ3        9.6890    1.6280   -1.8500 C.ar  104  TRP104      0.0001
     69  CH2        9.4840    2.6980   -0.9620 C.ar  104  TRP104      0.0015
     70  N         14.7150   -1.3100   -2.9180 N.3   112  ILE112     -0.1231
     71  CA        13.4800   -1.3770   -2.1590 C.3   112  ILE112      0.1692
     72  C         12.3710   -1.7320   -3.1560 C.2   112  ILE112      0.2592
     73  O         12.1130   -0.9770   -4.0960 O.2   112  ILE112     -0.2718
     74  CB        13.2590   -0.0310   -1.4360 C.3   112  ILE112      0.0266
     75  CG1       14.4890    0.4620   -0.6270 C.3   112  ILE112      0.0019
     76  CG2       12.0370   -0.1390   -0.5250 C.3   112  ILE112      0.0020
     77  CD1       15.0530   -0.5070    0.4250 C.3   112  ILE112      0.0001
     78  N         11.7570   -2.9120   -2.9860 N.am  113  ASN113     -0.1974
     79  CA        10.7500   -3.4250   -3.9100 C.3   113  ASN113      0.1688
     80  C          9.5170   -2.5110   -3.9050 C.2   113  ASN113      0.2292
     81  O          8.8050   -2.4150   -2.9020 O.2   113  ASN113     -0.2864
     82  CB        10.3870   -4.8800   -3.5700 C.3   113  ASN113      0.1181
     83  CG         9.4450   -5.4960   -4.6090 C.2   113  ASN113      0.2629
     84  OD1        8.5470   -4.8440   -5.1080 O.2   113  ASN113     -0.2716
     85  ND2        9.5800   -6.7620   -4.9520 N.am  113  ASN113     -0.0877
     86  N          6.0530   -4.5000   -3.5840 N.3   116  TYR116     -0.1227
     87  CA         5.8340   -4.7500   -2.1630 C.3   116  TYR116      0.1736
     88  C          5.4140   -3.4660   -1.4440 C.2   116  TYR116      0.2595
     89  O          4.4180   -3.4690   -0.7250 O.2   116  TYR116     -0.2718
     90  CB         7.1200   -5.3090   -1.5430 C.3   116  TYR116      0.0548
     91  CG         7.0320   -5.6460   -0.0670 C.ar  116  TYR116     -0.0200
     92  CD1        6.5640   -6.9090    0.3330 C.ar  116  TYR116     -0.0009
     93  CD2        7.4620   -4.7180    0.9030 C.ar  116  TYR116     -0.0009
     94  CE1        6.5760   -7.2690    1.6930 C.ar  116  TYR116      0.0417
     95  CE2        7.4640   -5.0650    2.2680 C.ar  116  TYR116      0.0417
     96  CZ         7.0380   -6.3540    2.6660 C.ar  116  TYR116      0.1957
     97  OH         7.0980   -6.7350    3.9730 O.3   116  TYR116     -0.2866
     98  N          6.1480   -2.3660   -1.6430 N.am  117  ALA117     -0.1980
     99  CA         5.8760   -1.1090   -0.9560 C.3   117  ALA117      0.1597
    100  C          4.5070   -0.5540   -1.3180 C.2   117  ALA117      0.2287
    101  O          3.7380   -0.1850   -0.4380 O.2   117  ALA117     -0.2864
    102  CB         6.9480   -0.1030   -1.3370 C.3   117  ALA117      0.0319
    103  N          1.9460   -2.7340    0.3110 N.3   120  HIS120     -0.1226
    104  CA         1.9360   -2.3910    1.7290 C.3   120  HIS120      0.1752
    105  C          1.0920   -1.1310    1.9500 C.2   120  HIS120      0.2595
    106  O          0.1570   -1.1260    2.7470 O.2   120  HIS120     -0.2718
    107  CB         3.4010   -2.2310    2.2010 C.3   120  HIS120      0.0759
    108  CG         3.5910   -1.9860    3.6770 C.ar  120  HIS120      0.0818
    109  ND1        4.3290   -2.7710    4.5450 N.ar  120  HIS120     -0.2268
    110  CD2        3.0250   -0.9830    4.4120 C.ar  120  HIS120      0.1154
    111  CE1        4.1530   -2.2810    5.7910 C.ar  120  HIS120      0.1986
    112  NE2        3.3450   -1.2060    5.7310 N.ar  120  HIS120     -0.2212
    113  N          1.4260   -0.0550    1.2410 N.am  121  GLU121     -0.1979
    114  CA         0.8370    1.2580    1.4550 C.3   121  GLU121      0.1602
    115  C         -0.6160    1.2930    0.9910 C.2   121  GLU121      0.2287
    116  O         -1.5010    1.7070    1.7440 O.2   121  GLU121     -0.2864
    117  CB         1.6900    2.2790    0.6920 C.3   121  GLU121      0.0415
    118  CG         3.0920    2.4180    1.3030 C.3   121  GLU121      0.1163
    119  CD         3.0040    2.9990    2.6980 C.2   121  GLU121      0.3649
    120  OE1        2.9260    2.2190    3.6330 O.co2 121  GLU121     -0.2457
    121  OE2        2.9700    4.3250    2.7940 O.co2 121  GLU121     -0.2457
    122  N         -3.0980   -0.2350    3.4050 N.3   124  HIS124     -0.1241
    123  CA        -3.6070    0.7090    4.3770 C.3   124  HIS124      0.1621
    124  C         -4.6270    1.6350    3.7360 C.2   124  HIS124      0.2264
    125  O         -5.6870    1.8270    4.3320 O.2   124  HIS124     -0.2867
    126  CB        -2.4700    1.4820    5.0370 C.3   124  HIS124      0.0745
    127  CG        -1.5460    0.5730    5.8000 C.ar  124  HIS124      0.0817
    128  ND1       -1.9080   -0.3590    6.7440 N.ar  124  HIS124     -0.2268
    129  CD2       -0.1980    0.4600    5.6150 C.ar  124  HIS124      0.1154
    130  CE1       -0.7970   -1.0060    7.1280 C.ar  124  HIS124      0.1986
    131  NE2        0.2780   -0.5250    6.4870 N.ar  124  HIS124     -0.2212
    132  N         -2.3820   -4.0070    9.1580 N.3   130  HIS130     -0.1241
    133  CA        -1.0780   -4.2700    9.7730 C.3   130  HIS130      0.1621
    134  C         -1.0590   -5.6240   10.5070 C.2   130  HIS130      0.2264
    135  O         -2.1190   -6.1910   10.8020 O.2   130  HIS130     -0.2867
    136  CB        -0.7090   -3.1140   10.7330 C.3   130  HIS130      0.0745
    137  CG         0.3590   -2.1610   10.2430 C.ar  130  HIS130      0.0817
    138  ND1        0.5530   -0.8670   10.6830 N.ar  130  HIS130     -0.2268
    139  CD2        1.3720   -2.4310    9.3590 C.ar  130  HIS130      0.1154
    140  CE1        1.6560   -0.3890   10.0820 C.ar  130  HIS130      0.1986
    141  NE2        2.1840   -1.3040    9.2560 N.ar  130  HIS130     -0.2212
    142  N          4.6730   -6.2560    7.4240 N.3   139  TYR139     -0.1228
    143  CA         5.5630   -6.2190    8.5860 C.3   139  TYR139      0.1721
    144  C          6.2470   -4.8440    8.7270 C.2   139  TYR139      0.2437
    145  O          6.7700   -4.3350    7.7270 O.2   139  TYR139     -0.2733
    146  CB         6.6380   -7.3130    8.4890 C.3   139  TYR139      0.0547
    147  CG         7.3640   -7.5750    9.7920 C.ar  139  TYR139     -0.0200
    148  CD1        6.6510   -8.0660   10.9020 C.ar  139  TYR139     -0.0009
    149  CD2        8.7480   -7.3460    9.8930 C.ar  139  TYR139     -0.0009
    150  CE1        7.3060   -8.3040   12.1210 C.ar  139  TYR139      0.0417
    151  CE2        9.4140   -7.5930   11.1060 C.ar  139  TYR139      0.0417
    152  CZ         8.6960   -8.0670   12.2280 C.ar  139  TYR139      0.1957
    153  OH         9.3480   -8.3000   13.4030 O.3   139  TYR139     -0.2866
    154  N          6.2830   -4.2360    9.9290 N.am  140  PRO140     -0.2718
    155  CA         7.0220   -3.0040   10.1690 C.3   140  PRO140      0.1535
    156  C          8.5290   -3.2870   10.2890 C.2   140  PRO140      0.2599
    157  O          8.9310   -4.1060   11.1120 O.2   140  PRO140     -0.2715
    158  CB         6.4440   -2.4360   11.4720 C.3   140  PRO140      0.0310
    159  CG         5.9410   -3.6660   12.2290 C.3   140  PRO140      0.0237
    160  CD         5.5700   -4.6550   11.1280 C.3   140  PRO140      0.0939
    161  N          9.3380   -2.5540    9.5120 N.am  141  THR141     -0.1937
    162  CA        10.7940   -2.6880    9.3740 C.3   141  THR141      0.2028
    163  C         11.1640   -3.9770    8.6160 C.2   141  THR141      0.2642
    164  O         10.9190   -5.0860    9.0870 O.2   141  THR141     -0.2714
    165  CB        11.5050   -2.5270   10.7370 C.3   141  THR141      0.1808
    166  OG1       11.2170   -1.2410   11.2580 O.3   141  THR141     -0.2208
    167  CG2       13.0290   -2.6540   10.6380 C.3   141  THR141      0.0379
    168  N         11.7640   -3.8260    7.4250 N.am  142  TYR142     -0.1973
    169  CA        12.2000   -4.9370    6.5710 C.3   142  TYR142      0.1639
    170  C         13.1080   -5.9360    7.3050 C.2   142  TYR142      0.2290
    171  O         13.9330   -5.5420    8.1310 O.2   142  TYR142     -0.2864
    172  CB        12.9630   -4.4020    5.3430 C.3   142  TYR142      0.0560
    173  CG        12.2350   -4.3700    4.0130 C.ar  142  TYR142     -0.0198
    174  CD1       11.3260   -5.3830    3.6390 C.ar  142  TYR142     -0.0009
    175  CD2       12.5840   -3.3720    3.0820 C.ar  142  TYR142     -0.0009
    176  CE1       10.7220   -5.3580    2.3720 C.ar  142  TYR142      0.0417
    177  CE2       12.0320   -3.3860    1.7940 C.ar  142  TYR142      0.0417
    178  CZ        11.0750   -4.3560    1.4390 C.ar  142  TYR142      0.1957
    179  OH        10.5250   -4.3100    0.1930 O.3   142  TYR142     -0.2866
@<TRIPOS>BOND
     1    59    58    2
     2    58    57    1
     3    60    57    1
     4    60    61    1
     5    57    56    1
     6    84    83    2
     7    85    83   am
     8    61    62   ar
     9    61    63   ar
    10    83    82    1
    11    62    64   ar
    12    73    72    2
    13    79    80    1
    14    79    82    1
    15    79    78    1
    16    80    81    2
    17    86    87    1
    18    63    66   ar
    19    63    65   ar
    20    64    65   ar
    21    72    78   am
    22    72    71    1
    23    66    68   ar
    24    70    71    1
    25    65    67   ar
    26    87    90    1
    27    87    88    1
    28    71    74    1
    29    68    69   ar
    30    98    88   am
    31    98    99    1
    32    90    91    1
    33    88    89    2
    34    74    75    1
    35    74    76    1
    36    67    69   ar
    37   102    99    1
    38   100    99    1
    39   100   101    2
    40    75    77    1
    41    91    92   ar
    42    91    93   ar
    43   179   178    1
    44   103   104    1
    45    92    94   ar
    46   117   118    1
    47   117   114    1
    48    93    95   ar
    49   115   114    1
    50   115   116    2
    51   113   114    1
    52   113   105   am
    53   118   119    1
    54   178   177   ar
    55   178   176   ar
    56    94    96   ar
    57   104   105    1
    58   104   107    1
    59   177   175   ar
    60    31    30    2
    61    40    37    1
    62   105   106    2
    63   107   108    1
    64    95    96   ar
    65   176   174   ar
    66    35    33    1
    67    96    97    1
    68   119   121   ar
    69   119   120   ar
    70    30    36   am
    71    30    29    1
    72    37    36    1
    73    37    38    1
    74   175   173   ar
    75    32    33    1
    76    32    29    1
    77    44    43    2
    78   122   123    1
    79    33    34    1
    80    55    52    1
    81   174   173   ar
    82    29    28    1
    83   108   110   ar
    84   108   109   ar
    85   124   125    2
    86   124   123    1
    87   173   172    1
    88    41    38   am
    89    41    42    1
    90    38    39    2
    91    43    51   am
    92    43    42    1
    93   123   126    1
    94    52    51    1
    95    52    53    1
    96   110   112   ar
    97   109   111   ar
    98    50    48   ar
    99    50    49   ar
   100   126   127    1
   101    42    45    1
   102    48    46   ar
   103    28    23   am
   104   172   169    1
   105    49    47   ar
   106    53    54    2
   107    24    23    2
   108   129   127   ar
   109   129   131   ar
   110    46    47   ar
   111    46    45    1
   112   112   111   ar
   113   127   128   ar
   114    23    22    1
   115   131   130   ar
   116   169   170    1
   117   169   168    1
   118   128   130   ar
   119     4     3    2
   120   170   171    2
   121   142   143    1
   122   168   163   am
   123    22    25    1
   124    22    21    1
   125    16    15    2
   126    27    25    1
   127   145   144    2
   128     3     2    1
   129    13    14    1
   130    25    26    1
   131    15    21   am
   132    15    14    1
   133     1     2    1
   134   146   143    1
   135   146   147    1
   136   143   144    1
   137   163   164    2
   138   163   162    1
   139   144   154   am
   140     2     5    1
   141    14    17    1
   142   132   133    1
   143     5     6    1
   144   141   139   ar
   145   141   140   ar
   146   139   137   ar
   147   162   161    1
   148   162   165    1
   149    17    18    1
   150   161   156   am
   151   133   134    1
   152   133   136    1
   153   147   149   ar
   154   147   148   ar
   155   149   151   ar
   156   154   155    1
   157   154   160    1
   158     8     6   ar
   159     8    10   ar
   160   140   138   ar
   161   155   156    1
   162   155   158    1
   163   137   138   ar
   164   137   136    1
   165     6     7   ar
   166   156   157    2
   167   134   135    2
   168   167   165    1
   169   165   166    1
   170    20    18   am
   171    18    19    2
   172   148   150   ar
   173    10    11   ar
   174   151   152   ar
   175   160   159    1
   176     7     9   ar
   177   158   159    1
   178    11     9   ar
   179    11    12    1
   180   150   152   ar
   181   152   153    1
