@<TRIPOS>MOLECULE
tmp/2de4B00.pdb
 180 178 0 0 0
SMALL
GASTEIGER

@<TRIPOS>ATOM
      1  N          2.3630    2.3190   35.5440 N.3    10  SER10      -0.1203
      2  CA         1.2110    2.9970   36.1130 C.3    10  SER10       0.2005
      3  C          0.6910    3.9270   35.0230 C.2    10  SER10       0.2461
      4  O          1.3240    4.0750   33.9760 O.2    10  SER10      -0.2732
      5  CB         1.6300    3.8210   37.3340 C.3    10  SER10       0.2103
      6  OG         2.3360    3.0280   38.2770 O.3    10  SER10      -0.2182
      7  N         -0.4760    4.5510   35.2450 N.am   11  PRO11      -0.2717
      8  CA        -1.0510    5.4690   34.2540 C.3    11  PRO11       0.1535
      9  C         -0.2710    6.7830   34.2620 C.2    11  PRO11       0.2598
     10  O         -0.8260    7.8470   34.5450 O.2    11  PRO11      -0.2715
     11  CB        -2.4850    5.6590   34.7420 C.3    11  PRO11       0.0310
     12  CG        -2.7650    4.4040   35.5270 C.3    11  PRO11       0.0237
     13  CD        -1.4740    4.1970   36.2700 C.3    11  PRO11       0.0939
     14  N          1.0210    6.6970   33.9660 N.am   12  VAL12      -0.1978
     15  CA         1.8890    7.8680   33.9640 C.3    12  VAL12       0.1596
     16  C          2.7500    7.8880   32.7100 C.2    12  VAL12       0.2287
     17  O          2.9840    6.8480   32.0930 O.2    12  VAL12      -0.2864
     18  CB         2.8180    7.8560   35.1950 C.3    12  VAL12       0.0276
     19  CG1        1.9890    7.7870   36.4700 C.3    12  VAL12       0.0022
     20  CG2        3.7780    6.6680   35.1110 C.3    12  VAL12       0.0022
     21  N          3.0500   -5.7790   40.8980 N.3    43  HIS43      -0.1226
     22  CA         3.1190   -4.3440   40.6230 C.3    43  HIS43       0.1752
     23  C          3.4760   -3.6050   41.9200 C.2    43  HIS43       0.2596
     24  O          4.0340   -2.5030   41.8870 O.2    43  HIS43      -0.2718
     25  CB         1.7620   -3.8600   40.0930 C.3    43  HIS43       0.0759
     26  CG         1.7550   -2.4400   39.6140 C.ar   43  HIS43       0.0818
     27  ND1        2.3610   -2.0430   38.4410 N.ar   43  HIS43      -0.2268
     28  CD2        1.1770   -1.3290   40.1330 C.ar   43  HIS43       0.1154
     29  CE1        2.1550   -0.7510   38.2560 C.ar   43  HIS43       0.1986
     30  NE2        1.4390   -0.2940   39.2690 N.ar   43  HIS43      -0.2212
     31  N          3.1560   -4.2280   43.0560 N.am   44  PHE44      -0.1976
     32  CA         3.4380   -3.6630   44.3840 C.3    44  PHE44       0.1639
     33  C          4.5270   -4.4270   45.1520 C.2    44  PHE44       0.2290
     34  O          5.1560   -3.8580   46.0520 O.2    44  PHE44      -0.2864
     35  CB         2.1870   -3.6820   45.2820 C.3    44  PHE44       0.0560
     36  CG         1.1660   -2.6150   44.9770 C.ar   44  PHE44      -0.0200
     37  CD1        0.0250   -2.5110   45.7710 C.ar   44  PHE44      -0.0042
     38  CD2        1.3120   -1.7470   43.9020 C.ar   44  PHE44      -0.0042
     39  CE1       -0.9620   -1.5640   45.4980 C.ar   44  PHE44      -0.0003
     40  CE2        0.3280   -0.7920   43.6190 C.ar   44  PHE44      -0.0003
     41  CZ        -0.8080   -0.7040   44.4170 C.ar   44  PHE44      -0.0000
     42  N          9.2590   -2.2510   36.0940 N.3    53  ARG53      -0.1245
     43  CA         8.0810   -1.4090   36.2280 C.3    53  ARG53       0.1563
     44  C          8.4630    0.0550   36.1550 C.2    53  ARG53       0.2260
     45  O          9.5220    0.4520   36.6330 O.2    53  ARG53      -0.2867
     46  CB         7.4090   -1.6790   37.5800 C.3    53  ARG53       0.0307
     47  CG         6.2910   -0.6970   37.9880 C.3    53  ARG53       0.0489
     48  CD         5.8520   -1.0050   39.4260 C.3    53  ARG53       0.2205
     49  NE         4.7600   -0.1660   39.9310 N.pl3  53  ARG53      -0.0865
     50  CZ         4.9050    1.0750   40.3890 C.cat  53  ARG53       0.5346
     51  NH1        6.1000    1.6480   40.4040 N.pl3  53  ARG53       0.1354
     52  NH2        3.8520    1.7340   40.8680 N.pl3  53  ARG53       0.1354
     53  N          4.2170    4.8890   39.6130 N.3    56  GLY56      -0.1225
     54  CA         4.1930    5.6450   40.8550 C.3    56  GLY56       0.1811
     55  C          5.2530    5.1750   41.8280 C.2    56  GLY56       0.2280
     56  O          5.5190    3.9790   41.9310 O.2    56  GLY56      -0.2866
     57  N          4.4850    2.5930   45.7920 N.3    59  PRO59      -0.2116
     58  CA         4.6180    1.1390   45.9650 C.3    59  PRO59       0.1372
     59  C          6.0720    0.6460   46.0870 C.2    59  PRO59       0.2244
     60  O          6.4010   -0.1100   47.0040 O.2    59  PRO59      -0.2868
     61  CB         3.9010    0.5780   44.7370 C.3    59  PRO59       0.0268
     62  CG         2.8220    1.6110   44.4830 C.3    59  PRO59       0.0207
     63  CD         3.5970    2.9090   44.6560 C.3    59  PRO59       0.0892
     64  N         -0.4440   -5.8430   49.4150 N.3   128  TRP128     -0.1241
     65  CA        -1.3940   -5.1690   48.5370 C.3   128  TRP128      0.1605
     66  C         -2.2390   -4.1210   49.2520 C.2   128  TRP128      0.2264
     67  O         -2.2030   -2.9400   48.8980 O.2   128  TRP128     -0.2867
     68  CB        -2.3070   -6.1790   47.8340 C.3   128  TRP128      0.0550
     69  CG        -3.1720   -5.5420   46.7810 C.ar  128  TRP128      0.0003
     70  CD1       -4.4930   -5.2120   46.8880 C.ar  128  TRP128      0.0946
     71  CD2       -2.7470   -5.0830   45.4920 C.ar  128  TRP128      0.0152
     72  NE1       -4.9150   -4.5700   45.7460 N.ar  128  TRP128     -0.2442
     73  CE2       -3.8630   -4.4770   44.8730 C.ar  128  TRP128      0.0810
     74  CE3       -1.5290   -5.1220   44.8000 C.ar  128  TRP128      0.0012
     75  CZ2       -3.7970   -3.9110   43.5950 C.ar  128  TRP128      0.0191
     76  CZ3       -1.4630   -4.5610   43.5290 C.ar  128  TRP128      0.0001
     77  CH2       -2.5930   -3.9620   42.9400 C.ar  128  TRP128      0.0015
     78  N         -2.1030    0.1520   49.3350 N.3   132  LEU132     -0.1245
     79  CA        -3.2970    0.8940   48.9410 C.3   132  LEU132      0.1561
     80  C         -3.6190    1.9870   49.9610 C.2   132  LEU132      0.2260
     81  O         -4.1600    3.0360   49.6050 O.2   132  LEU132     -0.2867
     82  CB        -4.4970   -0.0440   48.7920 C.3   132  LEU132      0.0270
     83  CG        -4.4550   -0.9870   47.5840 C.3   132  LEU132      0.0019
     84  CD1       -5.7510   -1.7830   47.5240 C.3   132  LEU132      0.0001
     85  CD2       -4.2670   -0.1840   46.3020 C.3   132  LEU132      0.0001
     86  N         -1.4490    4.8660   49.2540 N.3   135  LEU135     -0.1245
     87  CA        -1.8290    5.5820   48.0410 C.3   135  LEU135      0.1561
     88  C         -2.8610    6.6610   48.3530 C.2   135  LEU135      0.2260
     89  O         -3.1900    7.4860   47.4990 O.2   135  LEU135     -0.2867
     90  CB        -2.3580    4.6140   46.9780 C.3   135  LEU135      0.0270
     91  CG        -1.3190    3.6080   46.4630 C.3   135  LEU135      0.0019
     92  CD1       -1.8780    2.8620   45.2520 C.3   135  LEU135      0.0001
     93  CD2       -0.0320    4.3470   46.0810 C.3   135  LEU135      0.0001
     94  N         -2.0460   10.7380   47.7910 N.3   138  TRP138     -0.1241
     95  CA        -2.3250   11.7010   46.7270 C.3   138  TRP138      0.1605
     96  C         -3.4430   12.6560   47.1310 C.2   138  TRP138      0.2264
     97  O         -3.2940   13.8750   47.0270 O.2   138  TRP138     -0.2867
     98  CB        -2.7290   10.9940   45.4320 C.3   138  TRP138      0.0550
     99  CG        -1.7680    9.9460   44.9670 C.ar  138  TRP138      0.0003
    100  CD1       -0.4040   10.0250   44.9410 C.ar  138  TRP138      0.0946
    101  CD2       -2.1100    8.6850   44.3870 C.ar  138  TRP138      0.0152
    102  NE1        0.1250    8.8850   44.3750 N.ar  138  TRP138     -0.2442
    103  CE2       -0.9020    8.0480   44.0260 C.ar  138  TRP138      0.0810
    104  CE3       -3.3240    8.0320   44.1330 C.ar  138  TRP138      0.0012
    105  CZ2       -0.8730    6.7860   43.4220 C.ar  138  TRP138      0.0191
    106  CZ3       -3.2950    6.7740   43.5300 C.ar  138  TRP138      0.0001
    107  CH2       -2.0750    6.1670   43.1830 C.ar  138  TRP138      0.0015
    108  N         -7.4280    3.6280   41.7970 N.3   166  GLY166     -0.1225
    109  CA        -6.0670    3.2900   42.1710 C.3   166  GLY166      0.1811
    110  C         -5.8710    3.1290   43.6670 C.2   166  GLY166      0.2280
    111  O         -4.9050    2.5090   44.1090 O.2   166  GLY166     -0.2866
    112  N         -8.8540   -0.6580   45.1630 N.3   169  VAL169     -0.1245
    113  CA        -8.7010   -1.7200   44.1780 C.3   169  VAL169      0.1561
    114  C         -8.8400   -3.0690   44.8730 C.2   169  VAL169      0.2260
    115  O         -7.8490   -3.6630   45.3090 O.2   169  VAL169     -0.2867
    116  CB        -7.3180   -1.6570   43.4930 C.3   169  VAL169      0.0252
    117  CG1       -7.2400   -2.6950   42.3790 C.3   169  VAL169      0.0019
    118  CG2       -7.0680   -0.2560   42.9420 C.3   169  VAL169      0.0019
    119  N         -2.7160   -5.4090   34.0760 N.3   180  VAL180     -0.1245
    120  CA        -2.6640   -4.2440   34.9450 C.3   180  VAL180      0.1561
    121  C         -2.5940   -2.9520   34.1360 C.2   180  VAL180      0.2260
    122  O         -2.3170   -1.8840   34.6800 O.2   180  VAL180     -0.2867
    123  CB        -1.4740   -4.3110   35.9330 C.3   180  VAL180      0.0252
    124  CG1       -1.6830   -5.4610   36.9080 C.3   180  VAL180      0.0019
    125  CG2       -0.1720   -4.4900   35.1840 C.3   180  VAL180      0.0019
    126  N         -7.5840   -2.3650   34.0070 N.3   185  LEU185     -0.1231
    127  CA        -7.7500   -2.1880   35.4450 C.3   185  LEU185      0.1693
    128  C         -8.5320   -0.9470   35.8850 C.2   185  LEU185      0.2592
    129  O         -9.2240   -0.9750   36.9100 O.2   185  LEU185     -0.2718
    130  CB        -6.3670   -2.1890   36.1070 C.3   185  LEU185      0.0284
    131  CG        -6.3010   -2.2570   37.6340 C.3   185  LEU185      0.0019
    132  CD1       -6.9580   -3.5380   38.1200 C.3   185  LEU185      0.0001
    133  CD2       -4.8430   -2.2050   38.0800 C.3   185  LEU185      0.0001
    134  N         -8.4200    0.1350   35.1200 N.am  186  PHE186     -0.1976
    135  CA        -9.1030    1.3860   35.4490 C.3   186  PHE186      0.1639
    136  C         -9.9350    1.9050   34.2770 C.2   186  PHE186      0.2290
    137  O         -9.7100    3.0070   33.7850 O.2   186  PHE186     -0.2864
    138  CB        -8.0720    2.4490   35.8430 C.3   186  PHE186      0.0560
    139  CG        -7.1320    2.0060   36.9270 C.ar  186  PHE186     -0.0200
    140  CD1       -7.6090    1.7230   38.2020 C.ar  186  PHE186     -0.0042
    141  CD2       -5.7740    1.8500   36.6670 C.ar  186  PHE186     -0.0042
    142  CE1       -6.7440    1.2880   39.2050 C.ar  186  PHE186     -0.0003
    143  CE2       -4.9000    1.4140   37.6670 C.ar  186  PHE186     -0.0003
    144  CZ        -5.3870    1.1330   38.9350 C.ar  186  PHE186     -0.0000
    145  N         -6.9280   13.2360   38.8600 N.3   208  TRP208     -0.1227
    146  CA        -5.6550   13.6300   38.2710 C.3   208  TRP208      0.1737
    147  C         -5.3480   12.6580   37.1340 C.2   208  TRP208      0.2595
    148  O         -6.1810   11.8070   36.8140 O.2   208  TRP208     -0.2718
    149  CB        -4.5520   13.6060   39.3360 C.3   208  TRP208      0.0564
    150  CG        -4.2520   12.2480   39.9120 C.ar  208  TRP208      0.0003
    151  CD1       -5.1400   11.2370   40.1660 C.ar  208  TRP208      0.0946
    152  CD2       -2.9700   11.7690   40.3320 C.ar  208  TRP208      0.0152
    153  NE1       -4.4840   10.1580   40.7160 N.ar  208  TRP208     -0.2442
    154  CE2       -3.1520   10.4600   40.8270 C.ar  208  TRP208      0.0810
    155  CE3       -1.6820   12.3240   40.3370 C.ar  208  TRP208      0.0012
    156  CZ2       -2.0930    9.6910   41.3210 C.ar  208  TRP208      0.0191
    157  CZ3       -0.6250   11.5580   40.8320 C.ar  208  TRP208      0.0001
    158  CH2       -0.8400   10.2550   41.3150 C.ar  208  TRP208      0.0015
    159  N         -4.1660   12.7780   36.5320 N.am  209  LEU209     -0.1980
    160  CA        -3.7810   11.9190   35.4150 C.3   209  LEU209      0.1596
    161  C         -4.7830   12.1790   34.2820 C.2   209  LEU209      0.2287
    162  O         -5.5610   13.1300   34.3560 O.2   209  LEU209     -0.2864
    163  CB        -3.8170   10.4470   35.8470 C.3   209  LEU209      0.0297
    164  CG        -3.1070   10.1140   37.1630 C.3   209  LEU209      0.0022
    165  CD1       -3.1360    8.6040   37.3850 C.3   209  LEU209      0.0001
    166  CD2       -1.6720   10.6220   37.1220 C.3   209  LEU209      0.0001
    167  N         -7.3950   10.8670   33.7520 N.3   211  TRP211     -0.1241
    168  CA        -8.7350   10.7220   34.3020 C.3   211  TRP211      0.1605
    169  C         -9.3210   12.1110   34.5470 C.2   211  TRP211      0.2264
    170  O        -10.4990   12.3570   34.2740 O.2   211  TRP211     -0.2867
    171  CB        -8.6910    9.9310   35.6140 C.3   211  TRP211      0.0550
    172  CG        -8.0690    8.5660   35.4750 C.ar  211  TRP211      0.0003
    173  CD1       -8.0820    7.7650   34.3650 C.ar  211  TRP211      0.0946
    174  CD2       -7.3900    7.8230   36.4960 C.ar  211  TRP211      0.0152
    175  NE1       -7.4530    6.5700   34.6330 N.ar  211  TRP211     -0.2442
    176  CE2       -7.0210    6.5780   35.9340 C.ar  211  TRP211      0.0810
    177  CE3       -7.0590    8.0860   37.8340 C.ar  211  TRP211      0.0012
    178  CZ2       -6.3390    5.5970   36.6640 C.ar  211  TRP211      0.0191
    179  CZ3       -6.3790    7.1110   38.5610 C.ar  211  TRP211      0.0001
    180  CH2       -6.0280    5.8820   37.9730 C.ar  211  TRP211      0.0015
@<TRIPOS>BOND
     1    17    16    2
     2    16    15    1
     3   167   168    1
     4   137   136    2
     5    15    14    1
     6    15    18    1
     7    14     9   am
     8     4     3    2
     9   126   127    1
    10   119   120    1
    11   121   122    2
    12   121   120    1
    13     8     9    1
    14     8    11    1
    15     8     7    1
    16     9    10    2
    17   170   169    2
    18   136   135    1
    19   161   162    2
    20   161   160    1
    21   168   169    1
    22   168   171    1
    23   173   175   ar
    24   173   172   ar
    25   175   176   ar
    26    11    12    1
    27   120   123    1
    28     3     7   am
    29     3     2    1
    30    20    18    1
    31   134   135    1
    32   134   128   am
    33   125   123    1
    34    18    19    1
    35     7    13    1
    36   160   163    1
    37   160   159    1
    38   127   128    1
    39   127   130    1
    40   135   138    1
    41   172   171    1
    42   172   174   ar
    43    12    13    1
    44     1     2    1
    45   138   139    1
    46   163   164    1
    47   128   129    2
    48   123   124    1
    49   176   174   ar
    50   176   178   ar
    51    42    43    1
    52   130   131    1
    53     2     5    1
    54    44    43    1
    55    44    45    2
    56    43    46    1
    57   174   177   ar
    58   159   147   am
    59   178   180   ar
    60   141   139   ar
    61   141   143   ar
    62   148   147    2
    63   139   140   ar
    64   166   164    1
    65   147   146    1
    66   164   165    1
    67     5     6    1
    68    46    47    1
    69   131   133    1
    70   131   132    1
    71   143   144   ar
    72   177   179   ar
    73   180   179   ar
    74    47    48    1
    75   140   142   ar
    76    29    27   ar
    77    29    30   ar
    78   146   145    1
    79   146   149    1
    80    27    26   ar
    81   144   142   ar
    82    30    28   ar
    83   149   150    1
    84    48    49    1
    85    53    54    1
    86    26    25    1
    87    26    28   ar
    88   150   151   ar
    89   150   152   ar
    90    49    50    2
    91    25    22    1
    92   151   153   ar
    93   152   155   ar
    94   152   154   ar
    95   155   157   ar
    96    50    51    1
    97    50    52    1
    98    22    21    1
    99    22    23    1
   100   153   154   ar
   101   154   156   ar
   102   157   158   ar
   103    54    55    1
   104   158   156   ar
   105   108   109    1
   106    55    56    2
   107    24    23    2
   108    23    31   am
   109   109   110    1
   110   117   116    1
   111    77    76   ar
   112    77    75   ar
   113   118   116    1
   114    31    32    1
   115   107   105   ar
   116   107   106   ar
   117   105   103   ar
   118   116   113    1
   119    76    74   ar
   120   106   104   ar
   121    75    73   ar
   122    40    38   ar
   123    40    41   ar
   124   110   111    2
   125    38    36   ar
   126   103   102   ar
   127   103   101   ar
   128   104   101   ar
   129   113   114    1
   130   113   112    1
   131   102   100   ar
   132    32    33    1
   133    32    35    1
   134   101    99   ar
   135    41    39   ar
   136    62    63    1
   137    62    61    1
   138    63    57    1
   139    61    58    1
   140    74    71   ar
   141   114   115    2
   142    73    71   ar
   143    73    72   ar
   144   100    99   ar
   145    99    98    1
   146    36    35    1
   147    36    37   ar
   148    33    34    2
   149    92    91    1
   150    98    95    1
   151    71    69   ar
   152    39    37   ar
   153    72    70   ar
   154    57    58    1
   155    58    59    1
   156    93    91    1
   157    59    60    2
   158    85    83    1
   159    91    90    1
   160    95    96    1
   161    95    94    1
   162    69    70   ar
   163    69    68    1
   164    90    87    1
   165    97    96    2
   166    89    88    2
   167    84    83    1
   168    83    82    1
   169    68    65    1
   170    87    88    1
   171    87    86    1
   172    65    66    1
   173    65    64    1
   174    82    79    1
   175    67    66    2
   176    79    78    1
   177    79    80    1
   178    81    80    2
