@<TRIPOS>MOLECULE
tmp/2deiA01.pdb
 214 207 0 0 0
SMALL
GASTEIGER

@<TRIPOS>ATOM
      1  N         34.1280   21.9640   22.7460 N.3     9  ARG9       -0.1245
      2  CA        34.9730   21.2730   21.7560 C.3     9  ARG9        0.1563
      3  C         36.2370   22.0470   21.3910 C.2     9  ARG9        0.2260
      4  O         36.2990   23.2840   21.5060 O.2     9  ARG9       -0.2867
      5  CB        34.1580   20.9530   20.4980 C.3     9  ARG9        0.0307
      6  CG        33.8340   22.1640   19.6210 C.3     9  ARG9        0.0489
      7  CD        34.9100   22.4010   18.5720 C.3     9  ARG9        0.2205
      8  NE        34.6230   23.6310   17.8190 N.pl3   9  ARG9       -0.0865
      9  CZ        35.0310   24.8570   18.1550 C.cat   9  ARG9        0.5346
     10  NH1       35.7430   25.0700   19.2460 N.pl3   9  ARG9        0.1354
     11  NH2       34.6880   25.8920   17.3970 N.pl3   9  ARG9        0.1354
     12  N         28.7340   22.5610   29.7170 N.3    33  THR33      -0.1218
     13  CA        27.4870   23.2140   30.1190 C.3    33  THR33       0.1862
     14  C         26.6960   22.1600   30.8790 C.2    33  THR33       0.2287
     15  O         26.6130   21.0170   30.4350 O.2    33  THR33      -0.2866
     16  CB        26.7220   23.7340   28.9030 C.3    33  THR33       0.1770
     17  OG1       27.5900   24.5860   28.1400 O.3    33  THR33      -0.2211
     18  CG2       25.5080   24.5380   29.3320 C.3    33  THR33       0.0375
     19  N         20.3930   31.1370   34.1650 N.3    47  SER47      -0.1217
     20  CA        21.7730   30.9770   33.7280 C.3    47  SER47       0.1889
     21  C         22.7170   31.5030   34.7930 C.2    47  SER47       0.2288
     22  O         22.7580   32.7160   35.0390 O.2    47  SER47      -0.2866
     23  CB        22.0060   31.7520   32.4290 C.3    47  SER47       0.2089
     24  OG        23.3940   31.8610   32.1490 O.3    47  SER47      -0.2183
     25  N         25.9280   31.7900   34.4710 N.3    49  HIS49      -0.1226
     26  CA        26.8920   32.6990   33.8680 C.3    49  HIS49       0.1752
     27  C         26.4040   34.1490   33.8810 C.2    49  HIS49       0.2596
     28  O         27.1540   35.0520   34.2770 O.2    49  HIS49      -0.2718
     29  CB        27.2850   32.2950   32.4600 C.3    49  HIS49       0.0759
     30  CG        28.2500   33.2460   31.8220 C.ar   49  HIS49       0.0818
     31  ND1       29.6200   33.0760   31.8820 N.ar   49  HIS49      -0.2268
     32  CD2       28.0430   34.3900   31.1270 C.ar   49  HIS49       0.1154
     33  CE1       30.2100   34.0640   31.2320 C.ar   49  HIS49       0.1986
     34  NE2       29.2760   34.8780   30.7710 N.ar   49  HIS49      -0.2212
     35  N         25.1570   34.3580   33.4520 N.am   50  PHE50      -0.1976
     36  CA        24.5430   35.6870   33.4050 C.3    50  PHE50       0.1639
     37  C         23.9260   36.1480   34.7160 C.2    50  PHE50       0.2290
     38  O         23.6130   37.3330   34.8620 O.2    50  PHE50      -0.2864
     39  CB        23.5220   35.7610   32.2660 C.3    50  PHE50       0.0560
     40  CG        24.1330   35.6650   30.9010 C.ar   50  PHE50      -0.0200
     41  CD1       24.1950   34.4490   30.2330 C.ar   50  PHE50      -0.0042
     42  CD2       24.6710   36.7840   30.2840 C.ar   50  PHE50      -0.0042
     43  CE1       24.7850   34.3460   28.9570 C.ar   50  PHE50      -0.0003
     44  CE2       25.2590   36.6880   29.0210 C.ar   50  PHE50      -0.0003
     45  CZ        25.3070   35.4580   28.3580 C.ar   50  PHE50      -0.0000
     46  N         18.9090   37.8910   22.9020 N.3    66  SER66      -0.1202
     47  CA        19.6110   37.5830   24.1360 C.3    66  SER66       0.2020
     48  C         19.9170   36.0930   24.1150 C.2    66  SER66       0.2618
     49  O         19.5110   35.3910   23.1740 O.2    66  SER66      -0.2717
     50  CB        18.7510   37.8950   25.3530 C.3    66  SER66       0.2103
     51  OG        17.7620   36.8830   25.5270 O.3    66  SER66      -0.2182
     52  N         20.5810   35.6210   25.1660 N.am   67  TRP67      -0.1975
     53  CA        21.0090   34.2250   25.2640 C.3    67  TRP67       0.1640
     54  C         19.8340   33.2560   25.1920 C.2    67  TRP67       0.2290
     55  O         20.0120   32.1030   24.7990 O.2    67  TRP67      -0.2864
     56  CB        21.8510   33.9650   26.5150 C.3    67  TRP67       0.0576
     57  CG        21.1650   34.2000   27.8500 C.ar   67  TRP67       0.0006
     58  CD1       21.2240   35.3270   28.6040 C.ar   67  TRP67       0.0946
     59  CD2       20.3650   33.2600   28.5850 C.ar   67  TRP67       0.0152
     60  NE1       20.5030   35.1610   29.7670 N.ar   67  TRP67      -0.2442
     61  CE2       19.9640   33.8980   29.7810 C.ar   67  TRP67       0.0810
     62  CE3       19.9470   31.9410   28.3470 C.ar   67  TRP67       0.0012
     63  CZ2       19.1550   33.2700   30.7370 C.ar   67  TRP67       0.0191
     64  CZ3       19.1360   31.3090   29.3010 C.ar   67  TRP67       0.0001
     65  CH2       18.7410   31.9770   30.4780 C.ar   67  TRP67       0.0015
     66  N         19.0370   30.9530   22.0390 N.3    70  TYR70      -0.1241
     67  CA        19.6370   29.6460   21.7580 C.3    70  TYR70       0.1605
     68  C         18.6820   28.5820   22.2340 C.2    70  TYR70       0.2264
     69  O         18.6040   27.5090   21.6430 O.2    70  TYR70      -0.2867
     70  CB        21.0080   29.4660   22.4330 C.3    70  TYR70       0.0534
     71  CG        22.0570   30.3260   21.7610 C.ar   70  TYR70      -0.0201
     72  CD1       22.2680   31.6320   22.1600 C.ar   70  TYR70      -0.0009
     73  CD2       22.7900   29.8380   20.6830 C.ar   70  TYR70      -0.0009
     74  CE1       23.2070   32.4430   21.5070 C.ar   70  TYR70       0.0417
     75  CE2       23.7210   30.6470   20.0180 C.ar   70  TYR70       0.0417
     76  CZ        23.9280   31.9300   20.4430 C.ar   70  TYR70       0.1957
     77  OH        24.8600   32.7290   19.7930 O.3    70  TYR70      -0.2866
     78  N         21.0220   26.4230   34.3350 N.3    92  VAL92      -0.1231
     79  CA        22.1520   26.2230   33.4120 C.3    92  VAL92       0.1692
     80  C         23.4260   26.6960   34.1130 C.2    92  VAL92       0.2592
     81  O         23.5420   27.8640   34.5420 O.2    92  VAL92      -0.2718
     82  CB        21.9330   27.0070   32.1120 C.3    92  VAL92       0.0266
     83  CG1       23.0730   26.7560   31.1310 C.3    92  VAL92       0.0020
     84  CG2       20.5900   26.5980   31.4630 C.3    92  VAL92       0.0020
     85  N         24.3750   25.7830   34.2310 N.am   93  SER93      -0.1952
     86  CA        25.6400   26.0720   34.9050 C.3    93  SER93       0.1924
     87  C         26.7910   25.3840   34.1740 C.2    93  SER93       0.2314
     88  O         26.7020   25.1370   32.9700 O.2    93  SER93      -0.2863
     89  CB        25.5590   25.6640   36.3730 C.3    93  SER93       0.2116
     90  OG        25.2820   24.2750   36.5080 O.3    93  SER93      -0.2180
     91  N         33.9130   28.0830   29.4470 N.3    97  PRO97      -0.2102
     92  CA        33.9010   29.5480   29.3460 C.3    97  PRO97       0.1504
     93  C         33.0800   30.0290   28.1710 C.2    97  PRO97       0.2576
     94  O         33.0890   29.3960   27.1050 O.2    97  PRO97      -0.2718
     95  CB        35.3800   29.9110   29.1310 C.3    97  PRO97       0.0282
     96  CG        35.9910   28.7030   28.5770 C.3    97  PRO97       0.0208
     97  CD        35.2560   27.5280   29.1910 C.3    97  PRO97       0.0893
     98  N         32.3820   31.1410   28.3580 N.am   98  LEU98      -0.1966
     99  CA        31.4970   31.6380   27.3150 C.3    98  LEU98       0.1728
    100  C         32.2350   32.5530   26.3700 C.2    98  LEU98       0.2617
    101  O         32.9330   33.4650   26.8090 O.2    98  LEU98      -0.2715
    102  CB        30.2780   32.3740   27.9050 C.3    98  LEU98       0.0311
    103  CG        28.9860   31.5410   27.9520 C.3    98  LEU98       0.0022
    104  CD1       29.1250   30.3410   28.9190 C.3    98  LEU98       0.0001
    105  CD2       27.8430   32.4150   28.3650 C.3    98  LEU98       0.0001
    106  N         32.0320   32.3130   25.0760 N.am   99  GLY99      -0.1940
    107  CA        32.5300   33.1790   24.0080 C.3    99  GLY99       0.2014
    108  C         34.0310   33.1140   23.8850 C.2    99  GLY99       0.2639
    109  O         34.6620   34.0600   23.3960 O.2    99  GLY99      -0.2714
    110  N         34.6050   32.0040   24.3330 N.am  100  ALA100     -0.1963
    111  CA        36.0470   31.7920   24.2890 C.3   100  ALA100      0.1728
    112  C         36.5170   30.9900   23.0660 C.2   100  ALA100      0.2617
    113  O         37.7130   30.7530   22.9160 O.2   100  ALA100     -0.2715
    114  CB        36.5180   31.1290   25.5790 C.3   100  ALA100      0.0334
    115  N         35.5990   30.6060   22.1840 N.am  101  GLY101     -0.1940
    116  CA        35.9630   29.8130   21.0100 C.3   101  GLY101      0.2014
    117  C         35.9960   28.3180   21.2620 C.2   101  GLY101      0.2639
    118  O         36.6120   27.5590   20.5000 O.2   101  GLY101     -0.2714
    119  N         35.3270   27.8880   22.3230 N.am  102  LEU102     -0.1963
    120  CA        35.2820   26.4770   22.6530 C.3   102  LEU102      0.1728
    121  C         33.8830   25.9070   22.4230 C.2   102  LEU102      0.2617
    122  O         33.5520   24.7960   22.8830 O.2   102  LEU102     -0.2715
    123  CB        35.7780   26.2360   24.0800 C.3   102  LEU102      0.0311
    124  CG        37.2110   26.7360   24.3490 C.3   102  LEU102      0.0022
    125  CD1       37.6130   26.3790   25.7600 C.3   102  LEU102      0.0001
    126  CD2       38.2480   26.1760   23.3270 C.3   102  LEU102      0.0001
    127  N         33.0910   26.6630   21.6710 N.am  103  SER103     -0.1936
    128  CA        31.7040   26.3100   21.2960 C.3   103  SER103      0.2055
    129  C         30.7180   26.2130   22.4450 C.2   103  SER103      0.2644
    130  O         30.0000   25.2010   22.6040 O.2   103  SER103     -0.2714
    131  CB        31.6170   25.0510   20.4340 C.3   103  SER103      0.2130
    132  OG        30.3590   25.0370   19.7770 O.3   103  SER103     -0.2179
    133  N         30.6310   27.2680   23.2360 N.am  104  SER104     -0.1935
    134  CA        29.5740   27.2970   24.2280 C.3   104  SER104      0.2055
    135  C         28.2020   27.3520   23.5180 C.2   104  SER104      0.2643
    136  O         27.2410   26.8540   24.0600 O.2   104  SER104     -0.2714
    137  CB        29.7640   28.4320   25.2410 C.3   104  SER104      0.2130
    138  OG        29.5600   29.6710   24.6150 O.3   104  SER104     -0.2179
    139  N         28.1270   27.8680   22.2850 N.am  105  SER105     -0.1949
    140  CA        26.8340   27.8430   21.5720 C.3   105  SER105      0.1924
    141  C         26.3830   26.4050   21.2710 C.2   105  SER105      0.2314
    142  O         25.2570   26.0140   21.5910 O.2   105  SER105     -0.2863
    143  CB        26.8570   28.6990   20.3010 C.3   105  SER105      0.2116
    144  OG        27.8410   28.2400   19.3810 O.3   105  SER105     -0.2180
    145  N         25.6600   24.4840   24.6260 N.3   108  PHE108     -0.1241
    146  CA        24.3590   24.9020   25.1780 C.3   108  PHE108      0.1605
    147  C         23.1920   24.3810   24.3440 C.2   108  PHE108      0.2264
    148  O         22.2640   23.7660   24.8900 O.2   108  PHE108     -0.2867
    149  CB        24.3540   26.4300   25.2660 C.3   108  PHE108      0.0534
    150  CG        23.1480   27.0360   25.9560 C.ar  108  PHE108     -0.0203
    151  CD1       22.5900   26.4680   27.1010 C.ar  108  PHE108     -0.0042
    152  CD2       22.6460   28.2540   25.5070 C.ar  108  PHE108     -0.0042
    153  CE1       21.5050   27.0880   27.7580 C.ar  108  PHE108     -0.0003
    154  CE2       21.5740   28.8880   26.1630 C.ar  108  PHE108     -0.0003
    155  CZ        21.0070   28.2990   27.2870 C.ar  108  PHE108     -0.0000
    156  N         20.9000   26.8900   15.0350 N.3   137  GLU137     -0.1245
    157  CA        21.9020   27.9560   15.0620 C.3   137  GLU137      0.1567
    158  C         21.8990   28.7090   13.7470 C.2   137  GLU137      0.2260
    159  O         21.9140   29.9400   13.7680 O.2   137  GLU137     -0.2867
    160  CB        23.2910   27.3920   15.3610 C.3   137  GLU137      0.0388
    161  CG        24.3750   28.4530   15.3730 C.3   137  GLU137      0.1160
    162  CD        25.5190   28.2090   16.3470 C.2   137  GLU137      0.3649
    163  OE1       25.7230   27.0700   16.8690 O.co2 137  GLU137     -0.2457
    164  OE2       26.2490   29.1950   16.5670 O.co2 137  GLU137     -0.2457
    165  N         23.4570   32.4110   12.9960 N.3   143  VAL143     -0.1245
    166  CA        24.9130   32.3360   12.9190 C.3   143  VAL143      0.1561
    167  C         25.2770   31.2720   11.8790 C.2   143  VAL143      0.2260
    168  O         24.9730   30.0820   12.0450 O.2   143  VAL143     -0.2867
    169  CB        25.5240   32.0020   14.2740 C.3   143  VAL143      0.0252
    170  CG1       27.0150   31.7770   14.1450 C.3   143  VAL143      0.0019
    171  CG2       25.2610   33.1440   15.2810 C.3   143  VAL143      0.0019
    172  N         31.2280   21.9380   15.1150 N.3   149  ASP149     -0.1239
    173  CA        30.9920   22.1450   16.5430 C.3   149  ASP149      0.1674
    174  C         29.9480   21.1510   17.0550 C.2   149  ASP149      0.2266
    175  O         30.1740   20.4510   18.0240 O.2   149  ASP149     -0.2867
    176  CB        30.4890   23.5640   16.7670 C.3   149  ASP149      0.1410
    177  CG        31.4740   24.6390   16.3080 C.2   149  ASP149      0.3668
    178  OD1       32.6310   24.3240   16.0220 O.co2 149  ASP149     -0.2456
    179  OD2       31.0810   25.8300   16.2450 O.co2 149  ASP149     -0.2456
    180  N         37.3370   38.4430   22.3580 N.3   190  ARG190     -0.1231
    181  CA        36.1120   37.7570   21.9400 C.3   190  ARG190      0.1694
    182  C         35.9790   37.7560   20.4170 C.2   190  ARG190      0.2592
    183  O         35.9810   38.8070   19.7700 O.2   190  ARG190     -0.2718
    184  CB        34.8710   38.3180   22.6360 C.3   190  ARG190      0.0321
    185  CG        34.6290   37.7390   24.0310 C.3   190  ARG190      0.0489
    186  CD        33.2500   37.1040   24.0850 C.3   190  ARG190      0.2205
    187  NE        32.6620   37.0880   25.4220 N.pl3 190  ARG190     -0.0865
    188  CZ        31.3680   36.8820   25.6680 C.cat 190  ARG190      0.5346
    189  NH1       30.5170   36.6770   24.6660 N.pl3 190  ARG190      0.1354
    190  NH2       30.9190   36.8870   26.9190 N.pl3 190  ARG190      0.1354
    191  N         35.9020   36.5570   19.8570 N.am  191  ARG191     -0.1966
    192  CA        35.9850   36.3520   18.4090 C.3   191  ARG191      0.1729
    193  C         34.7410   36.8570   17.6830 C.2   191  ARG191      0.2616
    194  O         34.7640   37.0680   16.4600 O.2   191  ARG191     -0.2715
    195  CB        36.2190   34.8650   18.1010 C.3   191  ARG191      0.0348
    196  CG        35.0830   33.9330   18.4530 C.3   191  ARG191      0.0492
    197  CD        35.4920   32.4910   18.1950 C.3   191  ARG191      0.2205
    198  NE        34.4780   31.5090   18.4830 N.pl3 191  ARG191     -0.0865
    199  CZ        33.4690   31.1460   17.7230 C.cat 191  ARG191      0.5346
    200  NH1       33.3580   31.6950   16.5320 N.pl3 191  ARG191      0.1354
    201  NH2       32.6540   30.2050   18.1420 N.pl3 191  ARG191      0.1354
    202  N         33.6680   37.0540   18.4520 N.am  192  GLU192     -0.1977
    203  CA        32.3690   37.4440   17.9200 C.3   192  GLU192      0.1602
    204  C         32.4450   38.7920   17.2170 C.2   192  GLU192      0.2287
    205  O         31.5920   39.1080   16.3840 O.2   192  GLU192     -0.2864
    206  CB        31.3330   37.4850   19.0390 C.3   192  GLU192      0.0415
    207  CG        31.5370   36.2510   19.9160 C.3   192  GLU192      0.1163
    208  CD        30.4700   36.0100   20.9550 C.2   192  GLU192      0.3649
    209  OE1       29.7110   37.0530   21.1100 O.co2 192  GLU192     -0.2457
    210  OE2       30.3220   34.9720   21.6220 O.co2 192  GLU192     -0.2457
    211  N         39.2390   26.9000   16.0630 N.3   302  GLY302     -0.1225
    212  CA        37.9880   27.5950   15.7400 C.3   302  GLY302      0.1811
    213  C         38.1910   28.6320   14.6510 C.2   302  GLY302      0.2280
    214  O         39.0560   28.4800   13.7860 O.2   302  GLY302     -0.2866
@<TRIPOS>BOND
     1   167   168    2
     2   167   166    1
     3   166   165    1
     4   166   169    1
     5   158   159    2
     6   158   157    1
     7   214   213    2
     8   170   169    1
     9   169   171    1
    10   213   212    1
    11   156   157    1
    12   157   160    1
    13   172   173    1
    14   160   161    1
    15   161   162    1
    16   212   211    1
    17   178   177   ar
    18   179   177   ar
    19   177   176    1
    20   162   164   ar
    21   162   163   ar
    22   205   204    2
    23   194   193    2
    24   200   199    1
    25   173   176    1
    26   173   174    1
    27   174   175    2
    28   204   203    1
    29    11     9    1
    30   193   192    1
    31   193   202   am
    32   199   201    1
    33   199   198    2
    34     8     9    2
    35     8     7    1
    36   203   202    1
    37   203   206    1
    38   195   192    1
    39   195   196    1
    40     9    10    1
    41   197   196    1
    42   197   198    1
    43   192   191    1
    44     7     6    1
    45   206   207    1
    46   144   143    1
    47     6     5    1
    48   183   182    2
    49   132   131    1
    50    77    76    1
    51   191   182   am
    52   207   208    1
    53    75    76   ar
    54    75    73   ar
    55   143   140    1
    56   182   181    1
    57   131   128    1
    58    76    74   ar
    59     5     2    1
    60   118   117    2
    61    73    71   ar
    62   208   209   ar
    63   208   210   ar
    64   116   117    1
    65   116   115    1
    66   117   119   am
    67   141   140    1
    68   141   142    2
    69   128   127    1
    70   128   129    1
    71     3     4    2
    72     3     2    1
    73    74    72   ar
    74   140   139    1
    75    69    68    2
    76   127   121   am
    77     2     1    1
    78    67    66    1
    79    67    68    1
    80    67    70    1
    81    71    72   ar
    82    71    70    1
    83   181   180    1
    84   181   184    1
    85   115   112   am
    86   139   135   am
    87   119   120    1
    88   121   120    1
    89   121   122    2
    90   129   130    2
    91   129   133   am
    92   184   185    1
    93   120   123    1
    94    46    47    1
    95   113   112    2
    96   112   111    1
    97    49    48    2
    98   133   134    1
    99   126   124    1
   100   109   108    2
   101   135   136    2
   102   135   134    1
   103   108   107    1
   104   108   110   am
   105   107   106    1
   106   185   186    1
   107   123   124    1
   108   186   187    1
   109    48    47    1
   110    48    52   am
   111    47    50    1
   112   134   137    1
   113   111   110    1
   114   111   114    1
   115   147   148    2
   116   147   146    1
   117   124   125    1
   118   138   137    1
   119   145   146    1
   120   189   188    1
   121    55    54    2
   122   106   100   am
   123    52    53    1
   124   146   149    1
   125    54    53    1
   126    53    56    1
   127   149   150    1
   128    50    51    1
   129   187   188    2
   130   152   150   ar
   131   152   154   ar
   132   188   190    1
   133   150   151   ar
   134   154   155   ar
   135   100   101    2
   136   100    99    1
   137    56    57    1
   138   151   153   ar
   139    94    93    2
   140   155   153   ar
   141    99   102    1
   142    99    98    1
   143    57    59   ar
   144    57    58   ar
   145   102   103    1
   146   103   105    1
   147   103   104    1
   148    17    16    1
   149    93    98   am
   150    93    92    1
   151    62    59   ar
   152    62    64   ar
   153    45    43   ar
   154    45    44   ar
   155    96    95    1
   156    96    97    1
   157    59    61   ar
   158    58    60   ar
   159    16    18    1
   160    16    13    1
   161    43    41   ar
   162    44    42   ar
   163    95    92    1
   164    97    91    1
   165    64    65   ar
   166    92    91    1
   167    12    13    1
   168    60    61   ar
   169    61    63   ar
   170    13    14    1
   171    41    40   ar
   172    42    40   ar
   173    15    14    2
   174    65    63   ar
   175    34    32   ar
   176    34    33   ar
   177    40    39    1
   178    32    30   ar
   179    83    82    1
   180    33    31   ar
   181    84    82    1
   182    30    31   ar
   183    30    29    1
   184    82    79    1
   185    24    23    1
   186    39    36    1
   187    23    20    1
   188    29    26    1
   189    88    87    2
   190    36    35    1
   191    36    37    1
   192    79    80    1
   193    79    78    1
   194    35    27   am
   195    20    19    1
   196    20    21    1
   197    26    27    1
   198    26    25    1
   199    27    28    2
   200    80    85   am
   201    80    81    2
   202    87    86    1
   203    85    86    1
   204    37    38    2
   205    21    22    2
   206    86    89    1
   207    89    90    1
