@<TRIPOS>MOLECULE
tmp/2deiA00.pdb
 133 129 0 0 0
SMALL
GASTEIGER

@<TRIPOS>ATOM
      1  N         34.1280   21.9640   22.7460 N.3     9  ARG9       -0.1245
      2  CA        34.9730   21.2730   21.7560 C.3     9  ARG9        0.1563
      3  C         36.2370   22.0470   21.3910 C.2     9  ARG9        0.2260
      4  O         36.2990   23.2840   21.5060 O.2     9  ARG9       -0.2867
      5  CB        34.1580   20.9530   20.4980 C.3     9  ARG9        0.0307
      6  CG        33.8340   22.1640   19.6210 C.3     9  ARG9        0.0489
      7  CD        34.9100   22.4010   18.5720 C.3     9  ARG9        0.2205
      8  NE        34.6230   23.6310   17.8190 N.pl3   9  ARG9       -0.0865
      9  CZ        35.0310   24.8570   18.1550 C.cat   9  ARG9        0.5346
     10  NH1       35.7430   25.0700   19.2460 N.pl3   9  ARG9        0.1354
     11  NH2       34.6880   25.8920   17.3970 N.pl3   9  ARG9        0.1354
     12  N         41.9880   20.8570   10.5850 N.3    14  GLY14      -0.1210
     13  CA        40.8230   20.9410    9.7040 C.3    14  GLY14       0.1956
     14  C         40.0060   22.1950    9.9790 C.2    14  GLY14       0.2612
     15  O         38.8180   22.1160   10.2600 O.2    14  GLY14      -0.2717
     16  N         40.6610   23.3400    9.8910 N.am   15  GLU15      -0.1965
     17  CA        40.0280   24.6170   10.1980 C.3    15  GLU15       0.1733
     18  C         39.6150   25.3040    8.8920 C.2    15  GLU15       0.2616
     19  O         40.3710   25.3040    7.9100 O.2    15  GLU15      -0.2715
     20  CB        40.9770   25.5280   10.9670 C.3    15  GLU15       0.0429
     21  CG        40.2500   26.4120   11.9900 C.3    15  GLU15       0.1163
     22  CD        39.7400   25.5760   13.1480 C.2    15  GLU15       0.3649
     23  OE1       38.5520   25.2110   13.1290 O.co2  15  GLU15      -0.2457
     24  OE2       40.5350   25.2640   14.0460 O.co2  15  GLU15      -0.2457
     25  N         38.4090   25.8730    8.8980 N.am   16  HIS16      -0.1959
     26  CA        37.8440   26.5430    7.7270 C.3    16  HIS16       0.1787
     27  C         37.7630   25.5930    6.5350 C.2    16  HIS16       0.2621
     28  O         37.9400   25.9900    5.3880 O.2    16  HIS16      -0.2715
     29  CB        38.6410   27.8050    7.3990 C.3    16  HIS16       0.0785
     30  CG        38.4230   28.8950    8.3860 C.ar   16  HIS16       0.0821
     31  ND1       37.3220   29.7260    8.3380 N.ar   16  HIS16      -0.2267
     32  CD2       39.1290   29.2570    9.4860 C.ar   16  HIS16       0.1154
     33  CE1       37.3660   30.5610    9.3670 C.ar   16  HIS16       0.1986
     34  NE2       38.4560   30.3050   10.0720 N.ar   16  HIS16      -0.2212
     35  N         37.4720   24.3240    6.8240 N.am   17  THR17      -0.1937
     36  CA        37.2160   23.3520    5.7570 C.3    17  THR17       0.2028
     37  C         35.7530   22.8810    5.7400 C.2    17  THR17       0.2642
     38  O         35.2590   22.3830    4.7090 O.2    17  THR17      -0.2714
     39  CB        38.1130   22.1140    5.8830 C.3    17  THR17       0.1808
     40  OG1       37.9680   21.6210    7.2250 O.3    17  THR17      -0.2208
     41  CG2       39.5880   22.4480    5.5960 C.3    17  THR17       0.0379
     42  N         35.0490   22.9910    6.8720 N.am   18  ASP18      -0.1957
     43  CA        33.7070   22.3940    6.9520 C.3    18  ASP18       0.1840
     44  C         32.6400   23.0270    6.0270 C.2    18  ASP18       0.2622
     45  O         31.7910   22.3120    5.5030 O.2    18  ASP18      -0.2715
     46  CB        33.2240   22.1460    8.4210 C.3    18  ASP18       0.1450
     47  CG        32.9120   23.4260    9.2060 C.2    18  ASP18       0.3671
     48  OD1       33.2080   24.5490    8.7430 O.co2  18  ASP18      -0.2456
     49  OD2       32.3540   23.2870   10.3270 O.co2  18  ASP18      -0.2456
     50  N         32.7220   24.3330    5.7850 N.am   19  TYR19      -0.1974
     51  CA        31.7720   24.9810    4.8850 C.3    19  TYR19       0.1639
     52  C         32.0590   24.7770    3.3840 C.2    19  TYR19       0.2290
     53  O         31.2650   25.2040    2.5370 O.2    19  TYR19      -0.2864
     54  CB        31.5850   26.4630    5.2480 C.3    19  TYR19       0.0560
     55  CG        32.8510   27.2920    5.4090 C.ar   19  TYR19      -0.0198
     56  CD1       33.3470   27.6060    6.6790 C.ar   19  TYR19      -0.0009
     57  CD2       33.5030   27.8310    4.3000 C.ar   19  TYR19      -0.0009
     58  CE1       34.4840   28.4090    6.8370 C.ar   19  TYR19       0.0417
     59  CE2       34.6470   28.6280    4.4470 C.ar   19  TYR19       0.0417
     60  CZ        35.1260   28.9050    5.7190 C.ar   19  TYR19       0.1957
     61  OH        36.2220   29.7000    5.8820 O.3    19  TYR19      -0.2866
     62  N         37.5660   17.4040    8.8120 N.3    24  VAL24      -0.1245
     63  CA        37.7910   18.0520   10.0970 C.3    24  VAL24       0.1561
     64  C         38.1700   17.0090   11.1340 C.2    24  VAL24       0.2260
     65  O         37.9280   15.8100   10.9280 O.2    24  VAL24      -0.2867
     66  CB        36.5820   18.8920   10.5810 C.3    24  VAL24       0.0252
     67  CG1       36.2020   19.9510    9.5430 C.3    24  VAL24       0.0019
     68  CG2       35.3720   18.0050   10.9140 C.3    24  VAL24       0.0019
     69  N         25.9290   31.7350   10.7950 N.3   144  PRO144     -0.2102
     70  CA        26.4550   30.8220    9.8170 C.3   144  PRO144      0.1504
     71  C         27.5190   29.9870   10.4940 C.2   144  PRO144      0.2576
     72  O         28.2630   30.4530   11.3630 O.2   144  PRO144     -0.2718
     73  CB        27.0690   31.7420    8.7530 C.3   144  PRO144      0.0282
     74  CG        27.3160   33.0300    9.4410 C.3   144  PRO144      0.0208
     75  CD        26.2150   33.1450   10.4480 C.3   144  PRO144      0.0893
     76  N         27.5580   28.7330   10.1260 N.am  145  CYS145     -0.1957
     77  CA        28.5140   27.8630   10.7230 C.3   145  CYS145      0.1843
     78  C         28.3710   26.5930    9.9650 C.2   145  CYS145      0.2626
     79  O         27.3770   26.3620    9.2680 O.2   145  CYS145     -0.2714
     80  CB        28.1950   27.6470   12.2050 C.3   145  CYS145      0.0997
     81  SG        26.9550   26.3790   12.5320 S.3   145  CYS145     -0.0797
     82  N         29.3860   25.7720   10.0970 N.am  146  GLY146     -0.1954
     83  CA        29.3780   24.4520    9.4630 C.3   146  GLY146      0.1869
     84  C         29.0050   23.4470   10.5320 C.2   146  GLY146      0.2309
     85  O         28.4370   23.8090   11.5560 O.2   146  GLY146     -0.2863
     86  N         31.0630   21.2440   12.2410 N.3   148  LEU148     -0.1231
     87  CA        32.1640   20.8700   13.1520 C.3   148  LEU148      0.1693
     88  C         31.7800   20.8310   14.6390 C.2   148  LEU148      0.2592
     89  O         31.9780   19.8280   15.3310 O.2   148  LEU148     -0.2718
     90  CB        33.3400   21.8560   12.9540 C.3   148  LEU148      0.0284
     91  CG        34.4390   21.8250   14.0070 C.3   148  LEU148      0.0019
     92  CD1       35.4230   20.7260   13.5980 C.3   148  LEU148      0.0001
     93  CD2       35.1450   23.1750   14.1550 C.3   148  LEU148      0.0001
     94  N         31.2280   21.9380   15.1150 N.am  149  ASP149     -0.1974
     95  CA        30.9920   22.1450   16.5430 C.3   149  ASP149      0.1709
     96  C         29.9480   21.1510   17.0550 C.2   149  ASP149      0.2293
     97  O         30.1740   20.4510   18.0240 O.2   149  ASP149     -0.2864
     98  CB        30.4890   23.5640   16.7670 C.3   149  ASP149      0.1436
     99  CG        31.4740   24.6390   16.3080 C.2   149  ASP149      0.3671
    100  OD1       32.6310   24.3240   16.0220 O.co2 149  ASP149     -0.2456
    101  OD2       31.0810   25.8300   16.2450 O.co2 149  ASP149     -0.2456
    102  N         35.9020   36.5570   19.8570 N.3   191  ARG191     -0.1245
    103  CA        35.9850   36.3520   18.4090 C.3   191  ARG191      0.1563
    104  C         34.7410   36.8570   17.6830 C.2   191  ARG191      0.2260
    105  O         34.7640   37.0680   16.4600 O.2   191  ARG191     -0.2867
    106  CB        36.2190   34.8650   18.1010 C.3   191  ARG191      0.0307
    107  CG        35.0830   33.9330   18.4530 C.3   191  ARG191      0.0489
    108  CD        35.4920   32.4910   18.1950 C.3   191  ARG191      0.2205
    109  NE        34.4780   31.5090   18.4830 N.pl3 191  ARG191     -0.0865
    110  CZ        33.4690   31.1460   17.7230 C.cat 191  ARG191      0.5346
    111  NH1       33.3580   31.6950   16.5320 N.pl3 191  ARG191      0.1354
    112  NH2       32.6540   30.2050   18.1420 N.pl3 191  ARG191      0.1354
    113  N         34.1340   35.9630    9.1270 N.3   198  TYR198     -0.1241
    114  CA        33.8060   34.5440    8.8950 C.3   198  TYR198      0.1605
    115  C         32.8460   34.4020    7.7180 C.2   198  TYR198      0.2264
    116  O         33.0410   33.5720    6.8420 O.2   198  TYR198     -0.2867
    117  CB        33.1880   33.9250   10.1400 C.3   198  TYR198      0.0534
    118  CG        32.8240   32.4510   10.0130 C.ar  198  TYR198     -0.0201
    119  CD1       33.7140   31.4580   10.4350 C.ar  198  TYR198     -0.0009
    120  CD2       31.5990   32.0500    9.4600 C.ar  198  TYR198     -0.0009
    121  CE1       33.3720   30.0890   10.3310 C.ar  198  TYR198      0.0417
    122  CE2       31.2610   30.6960    9.3300 C.ar  198  TYR198      0.0417
    123  CZ        32.1590   29.7330    9.7780 C.ar  198  TYR198      0.1957
    124  OH        31.8450   28.4020    9.6880 O.3   198  TYR198     -0.2866
    125  N         39.2390   26.9000   16.0630 N.3   302  GLY302     -0.1210
    126  CA        37.9880   27.5950   15.7400 C.3   302  GLY302      0.1956
    127  C         38.1910   28.6320   14.6510 C.2   302  GLY302      0.2611
    128  O         39.0560   28.4800   13.7860 O.2   302  GLY302     -0.2717
    129  N         37.3850   29.6850   14.6890 N.am  303  ALA303     -0.1979
    130  CA        37.2810   30.6170   13.5670 C.3   303  ALA303      0.1597
    131  C         38.4830   31.5290   13.4120 C.2   303  ALA303      0.2287
    132  O         38.8070   31.9360   12.3040 O.2   303  ALA303     -0.2864
    133  CB        36.0070   31.4260   13.6730 C.3   303  ALA303      0.0319
@<TRIPOS>BOND
     1    53    52    2
     2    52    51    1
     3    57    59   ar
     4    57    55   ar
     5    59    60   ar
     6    38    37    2
     7    51    54    1
     8    51    50    1
     9    54    55    1
    10    28    27    2
    11    55    56   ar
    12    45    44    2
    13    41    39    1
    14    60    61    1
    15    60    58   ar
    16    37    36    1
    17    37    42   am
    18    36    39    1
    19    36    35    1
    20    50    44   am
    21    39    40    1
    22    44    43    1
    23    27    35   am
    24    27    26    1
    25    56    58   ar
    26   116   115    2
    27    42    43    1
    28    43    46    1
    29    29    26    1
    30    29    30    1
    31   115   114    1
    32    26    25    1
    33    19    18    2
    34    31    30   ar
    35    31    33   ar
    36    30    32   ar
    37    46    47    1
    38    48    47   ar
    39    73    74    1
    40    73    70    1
    41    62    63    1
    42    18    25   am
    43    18    17    1
    44   114   113    1
    45   114   117    1
    46    47    49   ar
    47    79    78    2
    48   122   120   ar
    49   122   123   ar
    50    33    34   ar
    51    74    75    1
    52   120   118   ar
    53    83    82    1
    54    83    84    1
    55    32    34   ar
    56    67    66    1
    57   124   123    1
    58    13    14    1
    59    13    12    1
    60   123   121   ar
    61    70    71    1
    62    70    69    1
    63    16    14   am
    64    16    17    1
    65    78    82   am
    66    78    77    1
    67    14    15    2
    68   118   117    1
    69   118   119   ar
    70    63    66    1
    71    63    64    1
    72    76    71   am
    73    76    77    1
    74    17    20    1
    75   121   119   ar
    76    75    69    1
    77    71    72    2
    78    84    85    2
    79    66    68    1
    80    77    80    1
    81    65    64    2
    82    20    21    1
    83    21    22    1
    84    80    81    1
    85    86    87    1
    86   132   131    2
    87    90    87    1
    88    90    91    1
    89    23    22   ar
    90    22    24   ar
    91    87    88    1
    92   131   130    1
    93   130   133    1
    94   130   129    1
    95    92    91    1
    96   128   127    2
    97    91    93    1
    98    88    94   am
    99    88    89    2
   100   127   129   am
   101   127   126    1
   102    94    95    1
   103   126   125    1
   104   100    99   ar
   105   101    99   ar
   106    99    98    1
   107   105   104    2
   108   111   110    1
   109    95    98    1
   110    95    96    1
   111    96    97    2
   112    11     9    1
   113   104   103    1
   114   110   112    1
   115   110   109    2
   116     8     9    2
   117     8     7    1
   118   106   103    1
   119   106   107    1
   120     9    10    1
   121   108   107    1
   122   108   109    1
   123   103   102    1
   124     7     6    1
   125     6     5    1
   126     5     2    1
   127     3     4    2
   128     3     2    1
   129     2     1    1
