@<TRIPOS>MOLECULE
tmp/2dejA01.pdb
 184 179 0 0 0
SMALL
GASTEIGER

@<TRIPOS>ATOM
      1  N         33.9710   22.0400   22.5680 N.3     9  ARG9       -0.1245
      2  CA        34.7990   21.3570   21.5880 C.3     9  ARG9        0.1563
      3  C         36.0570   22.1300   21.2290 C.2     9  ARG9        0.2260
      4  O         36.0850   23.3640   21.3070 O.2     9  ARG9       -0.2867
      5  CB        33.9900   21.0570   20.3200 C.3     9  ARG9        0.0307
      6  CG        33.6700   22.2680   19.4810 C.3     9  ARG9        0.0489
      7  CD        34.7170   22.4830   18.3840 C.3     9  ARG9        0.2205
      8  NE        34.4210   23.7110   17.6370 N.pl3   9  ARG9       -0.0865
      9  CZ        34.9040   24.9180   17.9150 C.cat   9  ARG9        0.5346
     10  NH1       35.7360   25.1080   18.9320 N.pl3   9  ARG9        0.1354
     11  NH2       34.5320   25.9550   17.1680 N.pl3   9  ARG9        0.1354
     12  N         28.5570   22.7700   29.4690 N.3    33  THR33      -0.1218
     13  CA        27.3130   23.4180   29.8580 C.3    33  THR33       0.1862
     14  C         26.5170   22.3600   30.6110 C.2    33  THR33       0.2287
     15  O         26.3540   21.2400   30.1310 O.2    33  THR33      -0.2866
     16  CB        26.5090   23.8710   28.6400 C.3    33  THR33       0.1770
     17  OG1       27.3170   24.7500   27.8500 O.3    33  THR33      -0.2211
     18  CG2       25.2440   24.5980   29.0800 C.3    33  THR33       0.0375
     19  N         20.1330   31.2910   34.0730 N.3    47  SER47      -0.1217
     20  CA        21.5290   31.1840   33.6210 C.3    47  SER47       0.1889
     21  C         22.4700   31.6530   34.7150 C.2    47  SER47       0.2288
     22  O         22.4680   32.8480   35.0660 O.2    47  SER47      -0.2866
     23  CB        21.7550   32.0440   32.3790 C.3    47  SER47       0.2089
     24  OG        23.1380   32.1130   32.0490 O.3    47  SER47      -0.2183
     25  N         25.6530   31.9490   34.3670 N.3    49  HIS49      -0.1226
     26  CA        26.6400   32.8550   33.7760 C.3    49  HIS49       0.1752
     27  C         26.1580   34.3090   33.8100 C.2    49  HIS49       0.2596
     28  O         26.8680   35.1990   34.2910 O.2    49  HIS49      -0.2718
     29  CB        27.0100   32.4550   32.3510 C.3    49  HIS49       0.0759
     30  CG        27.9460   33.4200   31.6870 C.ar   49  HIS49       0.0818
     31  ND1       29.3190   33.3070   31.7710 N.ar   49  HIS49      -0.2268
     32  CD2       27.7060   34.5290   30.9450 C.ar   49  HIS49       0.1154
     33  CE1       29.8830   34.2970   31.1000 C.ar   49  HIS49       0.1986
     34  NE2       28.9260   35.0520   30.5890 N.ar   49  HIS49      -0.2212
     35  N         24.9450   34.5260   33.3090 N.am   50  PHE50      -0.1976
     36  CA        24.3530   35.8550   33.2490 C.3    50  PHE50       0.1639
     37  C         23.7440   36.3110   34.5740 C.2    50  PHE50       0.2290
     38  O         23.4440   37.5020   34.7420 O.2    50  PHE50      -0.2864
     39  CB        23.3270   35.9200   32.1140 C.3    50  PHE50       0.0560
     40  CG        23.9330   35.8280   30.7480 C.ar   50  PHE50      -0.0200
     41  CD1       24.4650   36.9570   30.1310 C.ar   50  PHE50      -0.0042
     42  CD2       23.9620   34.6230   30.0650 C.ar   50  PHE50      -0.0042
     43  CE1       25.0380   36.8670   28.8640 C.ar   50  PHE50      -0.0003
     44  CE2       24.5370   34.5330   28.8000 C.ar   50  PHE50      -0.0003
     45  CZ        25.0600   35.6540   28.1990 C.ar   50  PHE50      -0.0000
     46  N         20.4190   35.6230   25.0270 N.3    67  TRP67      -0.1241
     47  CA        20.7770   34.2120   25.1190 C.3    67  TRP67       0.1605
     48  C         19.5890   33.2600   25.0520 C.2    67  TRP67       0.2264
     49  O         19.7520   32.0980   24.6560 O.2    67  TRP67      -0.2867
     50  CB        21.5860   33.9330   26.3770 C.3    67  TRP67       0.0550
     51  CG        20.9160   34.1860   27.6900 C.ar   67  TRP67       0.0003
     52  CD1       21.0120   35.3190   28.4480 C.ar   67  TRP67       0.0946
     53  CD2       20.1230   33.2620   28.4480 C.ar   67  TRP67       0.0152
     54  NE1       20.2970   35.1690   29.6220 N.ar   67  TRP67      -0.2442
     55  CE2       19.7420   33.9170   29.6440 C.ar   67  TRP67       0.0810
     56  CE3       19.6910   31.9470   28.2350 C.ar   67  TRP67       0.0012
     57  CZ2       18.9460   33.2930   30.6240 C.ar   67  TRP67       0.0191
     58  CZ3       18.8830   31.3310   29.2020 C.ar   67  TRP67       0.0001
     59  CH2       18.5340   31.9990   30.3890 C.ar   67  TRP67       0.0015
     60  N         18.8350   31.0720   21.9280 N.3    70  TYR70      -0.1241
     61  CA        19.4110   29.7480   21.6830 C.3    70  TYR70       0.1605
     62  C         18.4570   28.6360   22.1180 C.2    70  TYR70       0.2264
     63  O         18.3670   27.5780   21.4750 O.2    70  TYR70      -0.2867
     64  CB        20.7810   29.6300   22.3650 C.3    70  TYR70       0.0534
     65  CG        21.8140   30.4970   21.6800 C.ar   70  TYR70      -0.0201
     66  CD1       22.4930   30.0230   20.5620 C.ar   70  TYR70      -0.0009
     67  CD2       22.0810   31.7940   22.1170 C.ar   70  TYR70      -0.0009
     68  CE1       23.4350   30.8150   19.8940 C.ar   70  TYR70       0.0417
     69  CE2       23.0200   32.5980   21.4510 C.ar   70  TYR70       0.0417
     70  CZ        23.6900   32.0890   20.3470 C.ar   70  TYR70       0.1957
     71  OH        24.6240   32.8650   19.6740 O.3    70  TYR70      -0.2866
     72  N         20.8460   26.5730   34.1730 N.3    92  VAL92      -0.1231
     73  CA        21.9610   26.3850   33.2300 C.3    92  VAL92       0.1692
     74  C         23.2440   26.8750   33.8900 C.2    92  VAL92       0.2592
     75  O         23.3430   28.0330   34.3070 O.2    92  VAL92      -0.2718
     76  CB        21.7450   27.1840   31.9250 C.3    92  VAL92       0.0266
     77  CG1       22.8830   26.8980   30.9270 C.3    92  VAL92       0.0020
     78  CG2       20.3800   26.8450   31.3110 C.3    92  VAL92       0.0020
     79  N         24.2140   25.9860   33.9970 N.am   93  SER93      -0.1952
     80  CA        25.4680   26.3290   34.6310 C.3    93  SER93       0.1924
     81  C         26.6120   25.6240   33.9140 C.2    93  SER93       0.2314
     82  O         26.5050   25.3690   32.7170 O.2    93  SER93      -0.2863
     83  CB        25.4090   26.0030   36.1210 C.3    93  SER93       0.2116
     84  OG        25.1700   24.6270   36.3500 O.3    93  SER93      -0.2180
     85  N         32.2060   25.7250   30.9940 N.3    96  LEU96      -0.1231
     86  CA        32.6180   26.1040   29.6450 C.3    96  LEU96       0.1678
     87  C         32.5850   27.6340   29.4950 C.2    96  LEU96       0.2434
     88  O         31.5330   28.2410   29.7020 O.2    96  LEU96      -0.2733
     89  CB        31.7100   25.4110   28.6190 C.3    96  LEU96       0.0284
     90  CG        32.0250   25.6690   27.1480 C.3    96  LEU96       0.0019
     91  CD1       33.3480   24.9730   26.7300 C.3    96  LEU96       0.0001
     92  CD2       30.8900   25.1810   26.2790 C.3    96  LEU96       0.0001
     93  N         33.7420   28.2850   29.2000 N.am   97  PRO97      -0.2718
     94  CA        33.6940   29.7550   29.0880 C.3    97  PRO97       0.1535
     95  C         32.8550   30.2390   27.9200 C.2    97  PRO97       0.2598
     96  O         32.8740   29.6190   26.8500 O.2    97  PRO97      -0.2715
     97  CB        35.1700   30.1580   28.8840 C.3    97  PRO97       0.0310
     98  CG        35.8240   28.9210   28.3390 C.3    97  PRO97       0.0237
     99  CD        35.1080   27.7630   28.9930 C.3    97  PRO97       0.0939
    100  N         32.1280   31.3340   28.1290 N.am   98  LEU98      -0.1964
    101  CA        31.1980   31.8230   27.1180 C.3    98  LEU98       0.1728
    102  C         31.9080   32.6700   26.0850 C.2    98  LEU98       0.2617
    103  O         32.6540   33.5840   26.4310 O.2    98  LEU98      -0.2715
    104  CB        30.0330   32.6030   27.7580 C.3    98  LEU98       0.0311
    105  CG        28.7480   31.7720   27.8830 C.3    98  LEU98       0.0022
    106  CD1       28.8530   30.7060   28.9820 C.3    98  LEU98       0.0001
    107  CD2       27.5610   32.6620   28.1290 C.3    98  LEU98       0.0001
    108  N         31.6800   32.3710   24.8140 N.am   99  GLY99      -0.1940
    109  CA        32.2460   33.1700   23.7190 C.3    99  GLY99       0.2014
    110  C         33.7600   33.0980   23.5430 C.2    99  GLY99       0.2639
    111  O         34.3650   33.9870   22.9300 O.2    99  GLY99      -0.2714
    112  N         34.3580   32.0360   24.0650 N.am  100  ALA100     -0.1963
    113  CA        35.8020   31.8140   24.0260 C.3   100  ALA100      0.1728
    114  C         36.2260   31.0840   22.7640 C.2   100  ALA100      0.2617
    115  O         37.4210   30.8790   22.5370 O.2   100  ALA100     -0.2715
    116  CB        36.2380   31.0200   25.2380 C.3   100  ALA100      0.0334
    117  N         35.2790   30.6940   21.9250 N.am  101  GLY101     -0.1940
    118  CA        35.6370   29.9520   20.7300 C.3   101  GLY101      0.2014
    119  C         35.7130   28.4410   20.9370 C.2   101  GLY101      0.2639
    120  O         36.2970   27.7200   20.1200 O.2   101  GLY101     -0.2714
    121  N         35.1370   27.9740   22.0340 N.am  102  LEU102     -0.1963
    122  CA        35.0620   26.5430   22.3560 C.3   102  LEU102      0.1728
    123  C         33.6570   25.9930   22.1460 C.2   102  LEU102      0.2617
    124  O         33.3110   24.9070   22.6380 O.2   102  LEU102     -0.2715
    125  CB        35.5090   26.2900   23.7980 C.3   102  LEU102      0.0311
    126  CG        36.9070   26.8580   24.1090 C.3   102  LEU102      0.0022
    127  CD1       37.2520   26.6900   25.5730 C.3   102  LEU102      0.0001
    128  CD2       38.0060   26.2560   23.2230 C.3   102  LEU102      0.0001
    129  N         32.8580   26.7510   21.4070 N.am  103  SER103     -0.1936
    130  CA        31.4860   26.3880   21.0140 C.3   103  SER103      0.2055
    131  C         30.4460   26.4020   22.1290 C.2   103  SER103      0.2644
    132  O         29.7290   25.4240   22.3160 O.2   103  SER103     -0.2714
    133  CB        31.4250   25.0660   20.2290 C.3   103  SER103      0.2130
    134  OG        32.3070   25.0880   19.1050 O.3   103  SER103     -0.2179
    135  N         30.3560   27.5330   22.8230 N.am  104  SER104     -0.1935
    136  CA        29.2930   27.8090   23.7830 C.3   104  SER104      0.2055
    137  C         27.9230   27.5630   23.1670 C.2   104  SER104      0.2643
    138  O         27.0630   26.9600   23.8090 O.2   104  SER104     -0.2714
    139  CB        29.3720   29.2860   24.2490 C.3   104  SER104      0.2130
    140  OG        30.6130   29.5300   24.8690 O.3   104  SER104     -0.2179
    141  N         27.7440   28.0370   21.9320 N.am  105  SER105     -0.1949
    142  CA        26.4680   27.9280   21.2150 C.3   105  SER105      0.1924
    143  C         26.0460   26.4670   21.0290 C.2   105  SER105      0.2314
    144  O         24.9520   26.0810   21.4490 O.2   105  SER105     -0.2863
    145  CB        26.5450   28.6330   19.8480 C.3   105  SER105      0.2116
    146  OG        27.7640   28.3050   19.1810 O.3   105  SER105     -0.2180
    147  N         25.4330   24.6240   24.3400 N.3   108  PHE108     -0.1241
    148  CA        24.1600   25.0210   24.9520 C.3   108  PHE108      0.1605
    149  C         22.9670   24.4610   24.1770 C.2   108  PHE108      0.2264
    150  O         22.0550   23.8640   24.7650 O.2   108  PHE108     -0.2867
    151  CB        24.1200   26.5420   25.0280 C.3   108  PHE108      0.0534
    152  CG        22.9360   27.1270   25.7680 C.ar  108  PHE108     -0.0203
    153  CD1       22.3870   26.5070   26.8880 C.ar  108  PHE108     -0.0042
    154  CD2       22.4440   28.3770   25.3890 C.ar  108  PHE108     -0.0042
    155  CE1       21.3160   27.1030   27.5880 C.ar  108  PHE108     -0.0003
    156  CE2       21.3880   28.9820   26.0820 C.ar  108  PHE108     -0.0003
    157  CZ        20.8310   28.3520   27.1810 C.ar  108  PHE108     -0.0000
    158  N         20.7250   26.8530   14.8900 N.3   137  GLU137     -0.1245
    159  CA        21.7340   27.9110   14.8460 C.3   137  GLU137      0.1567
    160  C         21.6650   28.6860   13.5310 C.2   137  GLU137      0.2260
    161  O         21.6800   29.9180   13.5360 O.2   137  GLU137     -0.2867
    162  CB        23.1500   27.3370   15.0770 C.3   137  GLU137      0.0388
    163  CG        24.2990   28.3490   14.9500 C.3   137  GLU137      0.1160
    164  CD        24.5920   29.0860   16.2550 C.2   137  GLU137      0.3649
    165  OE1       23.6910   29.1670   17.1220 O.co2 137  GLU137     -0.2457
    166  OE2       25.7310   29.5860   16.4100 O.co2 137  GLU137     -0.2457
    167  N         23.1620   32.3800   12.6320 N.3   143  VAL143     -0.1245
    168  CA        24.6200   32.3310   12.6090 C.3   143  VAL143      0.1561
    169  C         25.0120   31.2290   11.6220 C.2   143  VAL143      0.2260
    170  O         24.6200   30.0650   11.8110 O.2   143  VAL143     -0.2867
    171  CB        25.1940   32.0630   14.0200 C.3   143  VAL143      0.0252
    172  CG1       26.6880   31.7930   13.9380 C.3   143  VAL143      0.0019
    173  CG2       24.9100   33.2510   14.9480 C.3   143  VAL143      0.0019
    174  N         36.6180   38.1660   22.5160 N.3   190  ARG190     -0.1245
    175  CA        35.3820   37.3990   22.2640 C.3   190  ARG190      0.1563
    176  C         35.2180   36.9150   20.8280 C.2   190  ARG190      0.2260
    177  O         35.5130   37.6380   19.8740 O.2   190  ARG190     -0.2867
    178  CB        34.1510   38.2040   22.6780 C.3   190  ARG190      0.0307
    179  CG        33.8400   38.1300   24.1650 C.3   190  ARG190      0.0489
    180  CD        33.1720   36.8100   24.5580 C.3   190  ARG190      0.2205
    181  NE        31.7880   36.7190   24.0900 N.pl3 190  ARG190     -0.0865
    182  CZ        30.7140   36.8330   24.8710 C.cat 190  ARG190      0.5346
    183  NH1       30.8400   37.0340   26.1790 N.pl3 190  ARG190      0.1354
    184  NH2       29.5000   36.7290   24.3400 N.pl3 190  ARG190      0.1354
@<TRIPOS>BOND
     1   169   170    2
     2   169   168    1
     3   168   167    1
     4   168   171    1
     5   160   161    2
     6   160   159    1
     7   172   171    1
     8   171   173    1
     9   159   158    1
    10   159   162    1
    11   163   162    1
    12   163   164    1
    13   164   166   ar
    14   164   165   ar
    15    11     9    1
    16     8     9    2
    17     8     7    1
    18     9    10    1
    19     7     6    1
    20   134   133    1
    21   146   145    1
    22     6     5    1
    23    71    70    1
    24   145   142    1
    25   177   176    2
    26    68    70   ar
    27    68    66   ar
    28   120   119    2
    29   133   130    1
    30     5     2    1
    31    70    69   ar
    32    66    65   ar
    33   118   119    1
    34   118   117    1
    35   176   175    1
    36   119   121   am
    37   130   129    1
    38   130   131    1
    39   143   142    1
    40   143   144    2
    41   142   141    1
    42     3     4    2
    43     3     2    1
    44   129   123   am
    45    69    67   ar
    46    63    62    2
    47     2     1    1
    48    65    67   ar
    49    65    64    1
    50    61    60    1
    51    61    62    1
    52    61    64    1
    53   117   114   am
    54   141   137   am
    55   121   122    1
    56   131   132    2
    57   131   135   am
    58   123   122    1
    59   123   124    2
    60   175   174    1
    61   175   178    1
    62   122   125    1
    63   115   114    2
    64   178   179    1
    65   114   113    1
    66   135   136    1
    67   111   110    2
    68   137   136    1
    69   137   138    2
    70   128   126    1
    71   110   109    1
    72   110   112   am
    73   109   108    1
    74   136   139    1
    75   125   126    1
    76   113   112    1
    77   113   116    1
    78   181   180    1
    79   181   182    2
    80   126   127    1
    81   179   180    1
    82   149   150    2
    83   149   148    1
    84   139   140    1
    85   184   182    1
    86   147   148    1
    87    49    48    2
    88   108   102   am
    89   182   183    1
    90   148   151    1
    91    46    47    1
    92   151   152    1
    93    48    47    1
    94    47    50    1
    95   154   152   ar
    96   154   156   ar
    97   152   153   ar
    98   156   157   ar
    99   102   103    2
   100   102   101    1
   101    92    90    1
   102    50    51    1
   103    91    90    1
   104    96    95    2
   105   153   155   ar
   106   101   104    1
   107   101   100    1
   108    90    89    1
   109   157   155   ar
   110    51    53   ar
   111    51    52   ar
   112   104   105    1
   113    17    16    1
   114   105   107    1
   115   105   106    1
   116    95   100   am
   117    95    94    1
   118    45    44   ar
   119    45    43   ar
   120    56    53   ar
   121    56    58   ar
   122    98    97    1
   123    98    99    1
   124    53    55   ar
   125    52    54   ar
   126    89    86    1
   127    16    18    1
   128    16    13    1
   129    44    42   ar
   130    43    41   ar
   131    97    94    1
   132    99    93    1
   133    94    93    1
   134    93    87   am
   135    58    59   ar
   136    12    13    1
   137    87    86    1
   138    87    88    2
   139    54    55   ar
   140    55    57   ar
   141    86    85    1
   142    13    14    1
   143    42    40   ar
   144    41    40   ar
   145    15    14    2
   146    59    57   ar
   147    34    32   ar
   148    34    33   ar
   149    40    39    1
   150    77    76    1
   151    32    30   ar
   152    33    31   ar
   153    78    76    1
   154    30    31   ar
   155    30    29    1
   156    76    73    1
   157    24    23    1
   158    39    36    1
   159    29    26    1
   160    23    20    1
   161    82    81    2
   162    73    74    1
   163    73    72    1
   164    36    35    1
   165    36    37    1
   166    35    27   am
   167    20    19    1
   168    20    21    1
   169    26    27    1
   170    26    25    1
   171    27    28    2
   172    74    79   am
   173    74    75    2
   174    81    80    1
   175    79    80    1
   176    37    38    2
   177    80    83    1
   178    21    22    2
   179    83    84    1
