@<TRIPOS>MOLECULE
tmp/2deuC00.pdb
 144 138 0 0 0
SMALL
GASTEIGER

@<TRIPOS>ATOM
      1  N         65.0130   24.2450   22.1180 N.3     7  GLY7       -0.1210
      2  CA        66.1180   23.3490   21.8640 C.3     7  GLY7        0.1956
      3  C         65.7610   22.3150   20.8200 C.2     7  GLY7        0.2612
      4  O         65.1030   21.3440   21.1510 O.2     7  GLY7       -0.2717
      5  N         66.1730   22.5110   19.5670 N.am    8  MET8       -0.1965
      6  CA        65.8790   21.5340   18.5120 C.3     8  MET8        0.1736
      7  C         66.8280   20.3420   18.6530 C.2     8  MET8        0.2617
      8  O         68.0490   20.5000   18.6390 O.2     8  MET8       -0.2715
      9  CB        66.0480   22.1600   17.1270 C.3     8  MET8        0.0427
     10  CG        65.1660   23.3540   16.8670 C.3     8  MET8        0.0599
     11  SD        63.4830   22.8690   16.7130 S.3     8  MET8       -0.1393
     12  CE        62.9760   22.7950   18.4300 C.3     8  MET8        0.0692
     13  N         66.2560   19.1480   18.7830 N.am    9  SER9       -0.1950
     14  CA        67.0350   17.9240   18.9570 C.3     9  SER9        0.1924
     15  C         66.9020   17.0100   17.7500 C.2     9  SER9        0.2314
     16  O         67.6200   16.0220   17.6310 O.2     9  SER9       -0.2863
     17  CB        66.5340   17.1600   20.1810 C.3     9  SER9        0.2116
     18  OG        65.4100   16.3720   19.8360 O.3     9  SER9       -0.2180
     19  N         64.2270   15.5590   17.2910 N.3    11  GLY11      -0.1225
     20  CA        63.3180   14.5710   17.8410 C.3    11  GLY11       0.1811
     21  C         61.8880   14.9260   17.4840 C.2    11  GLY11       0.2280
     22  O         61.5670   16.0930   17.2740 O.2    11  GLY11      -0.2866
     23  N         59.2810   15.0600   19.2630 N.3    13  ASP13      -0.1225
     24  CA        58.7570   16.0030   20.2380 C.3    13  ASP13       0.1805
     25  C         59.1120   17.4300   19.8290 C.2    13  ASP13       0.2598
     26  O         58.3000   18.1190   19.2160 O.2    13  ASP13      -0.2718
     27  CB        59.2940   15.7020   21.6490 C.3    13  ASP13       0.1424
     28  CG        58.9210   14.3050   22.1450 C.2    13  ASP13       0.3668
     29  OD1       59.5960   13.3280   21.7490 O.co2  13  ASP13      -0.2456
     30  OD2       57.9490   14.1870   22.9320 O.co2  13  ASP13      -0.2456
     31  N         60.3230   17.8620   20.1710 N.am   14  SER14      -0.1952
     32  CA        60.8240   19.1980   19.8370 C.3    14  SER14       0.1924
     33  C         60.0570   19.8510   18.6900 C.2    14  SER14       0.2314
     34  O         59.3490   20.8340   18.8890 O.2    14  SER14      -0.2863
     35  CB        62.2990   19.1150   19.4340 C.3    14  SER14       0.2116
     36  OG        63.0460   18.3370   20.3540 O.3    14  SER14      -0.2180
     37  N         67.8510   26.2900   18.6790 N.3    31  LEU31      -0.1231
     38  CA        69.2790   26.0300   18.7990 C.3    31  LEU31       0.1693
     39  C         69.5080   24.5310   18.9530 C.2    31  LEU31       0.2592
     40  O         68.7110   23.8430   19.5880 O.2    31  LEU31      -0.2718
     41  CB        69.8210   26.7740   20.0180 C.3    31  LEU31       0.0284
     42  CG        71.3140   26.7170   20.3100 C.3    31  LEU31       0.0019
     43  CD1       71.6160   27.7030   21.4010 C.3    31  LEU31       0.0001
     44  CD2       71.7320   25.3290   20.7290 C.3    31  LEU31       0.0001
     45  N         70.5940   24.0230   18.3810 N.am   32  PHE32      -0.1962
     46  CA        70.8980   22.6020   18.4800 C.3    32  PHE32       0.1771
     47  C         72.2440   22.3990   19.1370 C.2    32  PHE32       0.2619
     48  O         73.2810   22.6970   18.5520 O.2    32  PHE32      -0.2715
     49  CB        70.9210   21.9830   17.1000 C.3    32  PHE32       0.0574
     50  CG        71.4470   20.5900   17.0750 C.ar   32  PHE32      -0.0200
     51  CD1       70.5850   19.5120   17.1640 C.ar   32  PHE32      -0.0042
     52  CD2       72.8050   20.3550   16.9150 C.ar   32  PHE32      -0.0042
     53  CE1       71.0670   18.2200   17.0850 C.ar   32  PHE32      -0.0003
     54  CE2       73.2970   19.0710   16.8360 C.ar   32  PHE32      -0.0003
     55  CZ        72.4290   17.9980   16.9190 C.ar   32  PHE32      -0.0000
     56  N         72.2310   21.8750   20.3530 N.am   33  MET33      -0.1977
     57  CA        73.4670   21.6550   21.0940 C.3    33  MET33       0.1605
     58  C         74.2210   20.4180   20.6320 C.2    33  MET33       0.2287
     59  O         73.6260   19.3900   20.3340 O.2    33  MET33      -0.2864
     60  CB        73.1700   21.5150   22.5950 C.3    33  MET33       0.0413
     61  CG        72.4140   22.6700   23.1990 C.3    33  MET33       0.0598
     62  SD        72.2190   22.4430   24.9330 S.3    33  MET33      -0.1393
     63  CE        70.4990   22.7220   25.1370 C.3    33  MET33       0.0692
     64  N         70.7560   21.9550   29.7890 N.3   103  LYS103     -0.1245
     65  CA        69.4600   22.3510   29.2690 C.3   103  LYS103      0.1561
     66  C         68.6960   23.4350   30.0630 C.2   103  LYS103      0.2260
     67  O         67.7210   24.0010   29.5650 O.2   103  LYS103     -0.2867
     68  CB        68.6060   21.0910   29.0650 C.3   103  LYS103      0.0271
     69  CG        69.1480   20.1900   27.9350 C.3   103  LYS103      0.0035
     70  CD        68.5250   18.7970   27.9310 C.3   103  LYS103      0.0206
     71  CE        69.4990   17.7680   28.4760 C.3   103  LYS103      0.1093
     72  NZ        68.8250   16.5010   28.8510 N.3   103  LYS103     -0.1314
     73  N         72.5190   26.3330   28.6310 N.3   107  PHE107     -0.1241
     74  CA        71.6580   26.7610   27.5290 C.3   107  PHE107      0.1605
     75  C         71.0670   28.0970   27.9500 C.2   107  PHE107      0.2264
     76  O         71.5380   29.1430   27.5310 O.2   107  PHE107     -0.2867
     77  CB        70.5410   25.7240   27.3490 C.3   107  PHE107      0.0534
     78  CG        69.6040   25.9920   26.1990 C.ar  107  PHE107     -0.0203
     79  CD1       68.2980   25.5160   26.2430 C.ar  107  PHE107     -0.0042
     80  CD2       70.0310   26.6480   25.0550 C.ar  107  PHE107     -0.0042
     81  CE1       67.4370   25.6820   25.1660 C.ar  107  PHE107     -0.0003
     82  CE2       69.1660   26.8220   23.9640 C.ar  107  PHE107     -0.0003
     83  CZ        67.8720   26.3380   24.0220 C.ar  107  PHE107     -0.0000
     84  N         62.1380   23.7420   25.9210 N.3   122  THR122     -0.1203
     85  CA        62.6030   22.3980   25.6120 C.3   122  THR122      0.1994
     86  C         61.3360   21.6880   25.1870 C.2   122  THR122      0.2618
     87  O         60.2390   22.2580   25.2540 O.2   122  THR122     -0.2717
     88  CB        63.1760   21.6260   26.8420 C.3   122  THR122      0.1784
     89  OG1       62.2320   21.6410   27.9270 O.3   122  THR122     -0.2211
     90  CG2       64.4860   22.2110   27.2760 C.3   122  THR122      0.0376
     91  N         61.4810   20.4500   24.7430 N.am  123  GLY123     -0.1942
     92  CA        60.3100   19.6920   24.3630 C.3   123  GLY123      0.2014
     93  C         59.9510   18.7480   25.4960 C.2   123  GLY123      0.2638
     94  O         59.2290   17.7780   25.3080 O.2   123  GLY123     -0.2714
     95  N         60.4570   19.0250   26.6890 N.am  124  HIS124     -0.1973
     96  CA        60.1760   18.1550   27.8210 C.3   124  HIS124      0.1656
     97  C         58.6890   18.0130   28.0470 C.2   124  HIS124      0.2291
     98  O         57.9830   18.9900   28.3050 O.2   124  HIS124     -0.2864
     99  CB        60.8490   18.6790   29.0910 C.3   124  HIS124      0.0771
    100  CG        62.3380   18.5990   29.0510 C.ar  124  HIS124      0.0820
    101  ND1       63.1100   18.5550   30.1880 N.ar  124  HIS124     -0.2267
    102  CD2       63.1980   18.5790   28.0080 C.ar  124  HIS124      0.1154
    103  CE1       64.3850   18.5140   29.8460 C.ar  124  HIS124      0.1986
    104  NE2       64.4650   18.5290   28.5280 N.ar  124  HIS124     -0.2212
    105  N         57.8790   13.3910   31.8020 N.3   147  GLN147     -0.1245
    106  CA        59.2430   13.5440   32.2980 C.3   147  GLN147      0.1566
    107  C         59.5160   14.4270   33.5320 C.2   147  GLN147      0.2260
    108  O         60.6690   14.7630   33.8340 O.2   147  GLN147     -0.2867
    109  CB        60.1180   13.9450   31.1130 C.3   147  GLN147      0.0367
    110  CG        60.0100   12.9320   29.9720 C.3   147  GLN147      0.0905
    111  CD        60.4650   13.4760   28.6340 C.2   147  GLN147      0.2608
    112  OE1       59.8560   14.4050   28.0930 O.2   147  GLN147     -0.2717
    113  NE2       61.5420   12.8980   28.0860 N.am  147  GLN147     -0.0878
    114  N         61.7890    7.4020   19.6320 N.3   190  ASP190     -0.1225
    115  CA        61.5980    8.3520   20.7230 C.3   190  ASP190      0.1805
    116  C         62.8880    8.8100   21.4180 C.2   190  ASP190      0.2598
    117  O         62.9600    9.9480   21.9060 O.2   190  ASP190     -0.2718
    118  CB        60.6230    7.7920   21.7520 C.3   190  ASP190      0.1424
    119  CG        59.6990    8.8610   22.2960 C.2   190  ASP190      0.3668
    120  OD1       60.2120    9.8590   22.8540 O.co2 190  ASP190     -0.2456
    121  OD2       58.4650    8.7120   22.1520 O.co2 190  ASP190     -0.2456
    122  N         63.8870    7.9210   21.4450 N.am  191  SER191     -0.1952
    123  CA        65.2140    8.1610   22.0290 C.3   191  SER191      0.1924
    124  C         65.4370    7.4770   23.3810 C.2   191  SER191      0.2314
    125  O         64.5180    7.3670   24.1960 O.2   191  SER191     -0.2863
    126  CB        65.4900    9.6650   22.1620 C.3   191  SER191      0.2116
    127  OG        66.8410    9.9110   22.5130 O.3   191  SER191     -0.2180
    128  N         71.3560   11.3540   28.0310 N.3   195  CYS195     -0.1221
    129  CA        70.9900   12.4770   27.1940 C.3   195  CYS195      0.1808
    130  C         72.2530   12.9910   26.5270 C.2   195  CYS195      0.2601
    131  O         73.2770   13.1670   27.1770 O.2   195  CYS195     -0.2717
    132  CB        70.3560   13.5780   28.0420 C.3   195  CYS195      0.0970
    133  SG        69.5750   14.9150   27.1170 S.3   195  CYS195     -0.0800
    134  N         72.1640   13.2230   25.2250 N.am  196  PHE196     -0.1976
    135  CA        73.2790   13.7070   24.4290 C.3   196  PHE196      0.1639
    136  C         74.1620   12.5460   23.9780 C.2   196  PHE196      0.2290
    137  O         74.6680   12.5340   22.8510 O.2   196  PHE196     -0.2864
    138  CB        74.1100   14.7380   25.2030 C.3   196  PHE196      0.0560
    139  CG        73.3620   16.0080   25.5440 C.ar  196  PHE196     -0.0200
    140  CD1       74.0520   17.1620   25.8880 C.ar  196  PHE196     -0.0042
    141  CD2       71.9730   16.0490   25.5570 C.ar  196  PHE196     -0.0042
    142  CE1       73.3720   18.3320   26.2420 C.ar  196  PHE196     -0.0003
    143  CE2       71.2880   17.2220   25.9120 C.ar  196  PHE196     -0.0003
    144  CZ        71.9940   18.3600   26.2540 C.ar  196  PHE196     -0.0000
@<TRIPOS>BOND
     1    11    10    1
     2    11    12    1
     3    54    52   ar
     4    54    55   ar
     5    10     9    1
     6    52    50   ar
     7    55    53   ar
     8    50    49    1
     9    50    51   ar
    10    53    51   ar
    11    49    46    1
    12     9     6    1
    13    22    21    2
    14    19    20    1
    15    21    20    1
    16    16    15    2
    17    15    14    1
    18    45    46    1
    19    45    39   am
    20    46    47    1
    21     6     7    1
    22     6     5    1
    23    48    47    2
    24     8     7    2
    25     7    13   am
    26    37    38    1
    27    33    34    2
    28    33    32    1
    29    13    14    1
    30    38    39    1
    31    38    41    1
    32    39    40    2
    33    14    17    1
    34    47    56   am
    35    26    25    2
    36    23    24    1
    37    35    32    1
    38    35    36    1
    39     5     3   am
    40   114   115    1
    41    25    31   am
    42    25    24    1
    43    18    17    1
    44    32    31    1
    45    41    42    1
    46    24    27    1
    47    42    44    1
    48    42    43    1
    49    59    58    2
    50    56    57    1
    51    58    57    1
    52   115   116    1
    53   115   118    1
    54     3     4    2
    55     3     2    1
    56    57    60    1
    57   116   122   am
    58   116   117    2
    59   122   123    1
    60    27    28    1
    61    29    28   ar
    62   118   119    1
    63     2     1    1
    64   123   126    1
    65   123   124    1
    66    28    30   ar
    67   121   119   ar
    68   126   127    1
    69   119   120   ar
    70    60    61    1
    71   137   136    2
    72    61    62    1
    73   124   125    2
    74    82    83   ar
    75    82    80   ar
    76   136   135    1
    77    83    81   ar
    78    92    91    1
    79    92    93    1
    80   135   138    1
    81   135   134    1
    82    91    86   am
    83    62    63    1
    84    80    78   ar
    85    81    79   ar
    86    86    87    2
    87    86    85    1
    88   138   139    1
    89   134   130   am
    90    94    93    2
    91    93    95   am
    92   139   141   ar
    93   139   140   ar
    94   141   143   ar
    95    85    84    1
    96    85    88    1
    97   140   142   ar
    98   143   144   ar
    99    78    79   ar
   100    78    77    1
   101   142   144   ar
   102   130   131    2
   103   130   129    1
   104    95    96    1
   105    88    90    1
   106    88    89    1
   107   133   132    1
   108   129   128    1
   109   129   132    1
   110    77    74    1
   111    74    75    1
   112    74    73    1
   113    76    75    2
   114    96    97    1
   115    96    99    1
   116    70    69    1
   117    70    71    1
   118    69    68    1
   119   102   104   ar
   120   102   100   ar
   121    97    98    2
   122   113   111   am
   123   112   111    2
   124    71    72    1
   125   104   103   ar
   126   111   110    1
   127   100    99    1
   128   100   101   ar
   129    68    65    1
   130    65    64    1
   131    65    66    1
   132    67    66    2
   133   103   101   ar
   134   110   109    1
   135   109   106    1
   136   105   106    1
   137   106   107    1
   138   107   108    2
