@<TRIPOS>MOLECULE
tmp/2dexA00.pdb
 210 199 0 0 0
SMALL
GASTEIGER

@<TRIPOS>ATOM
      1  N         31.1850   57.0280   15.1530 N.3   308  ASP308     -0.1225
      2  CA        31.2450   56.5060   16.5220 C.3   308  ASP308      0.1805
      3  C         30.2310   55.4140   16.8180 C.2   308  ASP308      0.2598
      4  O         29.9890   55.1130   17.9840 O.2   308  ASP308     -0.2718
      5  CB        31.1470   57.6410   17.5610 C.3   308  ASP308      0.1424
      6  CG        32.2530   58.6630   17.4050 C.2   308  ASP308      0.3668
      7  OD1       31.9500   59.8790   17.2940 O.co2 308  ASP308     -0.2456
      8  OD2       33.4370   58.2450   17.3800 O.co2 308  ASP308     -0.2456
      9  N         29.6720   54.8100   15.7640 N.am  309  ASP309     -0.1960
     10  CA        28.7680   53.6510   15.8870 C.3   309  ASP309      0.1840
     11  C         29.5820   52.3700   15.7880 C.2   309  ASP309      0.2622
     12  O         30.0720   52.0040   14.7180 O.2   309  ASP309     -0.2715
     13  CB        27.6920   53.6780   14.7950 C.3   309  ASP309      0.1450
     14  CG        26.7280   52.5030   14.8720 C.2   309  ASP309      0.3671
     15  OD1       26.8570   51.6290   15.7610 O.co2 309  ASP309     -0.2456
     16  OD2       25.8130   52.4590   14.0190 O.co2 309  ASP309     -0.2456
     17  N         29.6990   51.6890   16.9160 N.am  310  GLN310     -0.1963
     18  CA        30.5860   50.5470   17.0430 C.3   310  GLN310      0.1733
     19  C         29.8630   49.1980   16.8830 C.2   310  GLN310      0.2616
     20  O         30.5110   48.1480   16.9020 O.2   310  GLN310     -0.2715
     21  CB        31.2620   50.6010   18.4060 C.3   310  GLN310      0.0408
     22  CG        30.3740   50.1330   19.5290 C.3   310  GLN310      0.0908
     23  CD        30.7330   50.7270   20.8350 C.2   310  GLN310      0.2608
     24  OE1       31.5660   50.1920   21.5600 O.2   310  GLN310     -0.2717
     25  NE2       30.1010   51.8380   21.1670 N.am  310  GLN310     -0.0878
     26  N         28.5430   49.2290   16.7210 N.am  311  TRP311     -0.1974
     27  CA        27.7280   47.9780   16.7140 C.3   311  TRP311      0.1640
     28  C         27.5720   47.4240   15.3070 C.2   311  TRP311      0.2290
     29  O         26.5140   47.5670   14.6700 O.2   311  TRP311     -0.2864
     30  CB        26.3770   48.2190   17.3940 C.3   311  TRP311      0.0576
     31  CG        26.5510   48.9050   18.7090 C.ar  311  TRP311      0.0006
     32  CD1       26.2250   50.2020   19.0090 C.ar  311  TRP311      0.0946
     33  CD2       27.1830   48.3660   19.8870 C.ar  311  TRP311      0.0152
     34  NE1       26.5870   50.4870   20.3060 N.ar  311  TRP311     -0.2442
     35  CE2       27.1860   49.3880   20.8640 C.ar  311  TRP311      0.0810
     36  CE3       27.7460   47.1210   20.2070 C.ar  311  TRP311      0.0012
     37  CZ2       27.7060   49.1970   22.1600 C.ar  311  TRP311      0.0191
     38  CZ3       28.2750   46.9330   21.4950 C.ar  311  TRP311      0.0001
     39  CH2       28.2520   47.9690   22.4530 C.ar  311  TRP311      0.0015
     40  N         27.2500   44.4250   14.3440 N.3   313  GLN313     -0.1231
     41  CA        26.1940   43.4070   14.3180 C.3   313  GLN313      0.1698
     42  C         24.8190   43.9330   13.9180 C.2   313  GLN313      0.2592
     43  O         24.0050   43.2070   13.3210 O.2   313  GLN313     -0.2718
     44  CB        26.0810   42.7530   15.6990 C.3   313  GLN313      0.0381
     45  CG        24.9600   41.7150   15.8860 C.3   313  GLN313      0.0905
     46  CD        25.1690   40.4600   15.0380 C.2   313  GLN313      0.2608
     47  OE1       24.2070   39.7320   14.7290 O.2   313  GLN313     -0.2717
     48  NE2       26.4150   40.2340   14.6140 N.am  313  GLN313     -0.0878
     49  N         24.5380   45.1790   14.2650 N.am  314  ASP314     -0.1974
     50  CA        23.1640   45.6360   14.3370 C.3   314  ASP314      0.1709
     51  C         22.5900   46.2290   13.0500 C.2   314  ASP314      0.2293
     52  O         21.3950   46.0960   12.7730 O.2   314  ASP314     -0.2864
     53  CB        23.0160   46.6100   15.5150 C.3   314  ASP314      0.1436
     54  CG        23.1440   45.9150   16.8710 C.2   314  ASP314      0.3671
     55  OD1       22.9170   44.6740   16.9610 O.co2 314  ASP314     -0.2456
     56  OD2       23.5110   46.6050   17.8360 O.co2 314  ASP314     -0.2456
     57  N         17.5790   50.5390   11.2290 N.3   336  ARG336     -0.1245
     58  CA        18.0070   51.2300   12.4460 C.3   336  ARG336      0.1563
     59  C         18.7550   52.5330   12.1490 C.2   336  ARG336      0.2260
     60  O         18.5430   53.5180   12.8430 O.2   336  ARG336     -0.2867
     61  CB        18.7600   50.3100   13.4070 C.3   336  ARG336      0.0307
     62  CG        20.2290   50.1280   13.1940 C.3   336  ARG336      0.0489
     63  CD        20.9980   49.9880   14.5010 C.3   336  ARG336      0.2205
     64  NE        22.4110   49.9140   14.1640 N.pl3 336  ARG336     -0.0865
     65  CZ        23.4450   50.2370   14.9310 C.cat 336  ARG336      0.5346
     66  NH1       23.3150   50.6370   16.1820 N.pl3 336  ARG336      0.1354
     67  NH2       24.6510   50.1200   14.4170 N.pl3 336  ARG336      0.1354
     68  N         21.8100   54.1590   12.2660 N.3   338  ARG338     -0.1245
     69  CA        22.6450   54.9620   13.1480 C.3   338  ARG338      0.1563
     70  C         23.9700   55.3010   12.4250 C.2   338  ARG338      0.2260
     71  O         23.9680   55.4420   11.1940 O.2   338  ARG338     -0.2867
     72  CB        22.7770   54.2630   14.5030 C.3   338  ARG338      0.0307
     73  CG        21.4220   54.2480   15.2070 C.3   338  ARG338      0.0489
     74  CD        21.4070   53.4280   16.4530 C.3   338  ARG338      0.2205
     75  NE        22.2140   54.0610   17.4940 N.pl3 338  ARG338     -0.0865
     76  CZ        22.5660   53.4810   18.6370 C.cat 338  ARG338      0.5346
     77  NH1       22.1850   52.2400   18.9040 N.pl3 338  ARG338      0.1354
     78  NH2       23.3080   54.1560   19.5150 N.pl3 338  ARG338      0.1354
     79  N         14.4570   49.1700   18.8730 N.3   367  GLY367     -0.1225
     80  CA        15.6580   48.3710   19.0930 C.3   367  GLY367      0.1811
     81  C         15.5810   46.9440   18.5700 C.2   367  GLY367      0.2280
     82  O         16.6090   46.3130   18.2790 O.2   367  GLY367     -0.2866
     83  N         17.2500   46.2710   15.2010 N.3   370  SER370     -0.1217
     84  CA        18.6960   46.0530   15.1480 C.3   370  SER370      0.1889
     85  C         18.9790   44.5640   14.9100 C.2   370  SER370      0.2288
     86  O         18.3310   43.6980   15.4940 O.2   370  SER370     -0.2866
     87  CB        19.3330   46.5030   16.4480 C.3   370  SER370      0.2089
     88  OG        19.2570   47.9000   16.5760 O.3   370  SER370     -0.2183
     89  N         21.2170   42.4170   15.7000 N.3   372  GLY372     -0.1225
     90  CA        21.5510   41.5350   16.8080 C.3   372  GLY372      0.1811
     91  C         20.3390   40.7100   17.2280 C.2   372  GLY372      0.2280
     92  O         20.4560   39.6720   17.9070 O.2   372  GLY372     -0.2866
     93  N          7.8770   46.1560   22.6800 N.3   405  ARG405     -0.1245
     94  CA         8.4850   46.3600   21.3870 C.3   405  ARG405      0.1563
     95  C          8.4080   45.1290   20.5140 C.2   405  ARG405      0.2260
     96  O          8.2700   44.0050   21.0020 O.2   405  ARG405     -0.2867
     97  CB         9.9370   46.7560   21.5730 C.3   405  ARG405      0.0307
     98  CG        10.0300   47.9070   22.5090 C.3   405  ARG405      0.0489
     99  CD        11.3590   48.5880   22.4830 C.3   405  ARG405      0.2205
    100  NE        12.4990   47.7770   22.8670 N.pl3 405  ARG405     -0.0865
    101  CZ        12.6590   47.1910   24.0390 C.cat 405  ARG405      0.5346
    102  NH1       11.7010   47.2560   24.9380 N.pl3 405  ARG405      0.1354
    103  NH2       13.7750   46.5290   24.3220 N.pl3 405  ARG405      0.1354
    104  N         17.0310   44.8970   28.0770 N.3   432  SER432     -0.1202
    105  CA        17.0500   46.3450   27.8900 C.3   432  SER432      0.2020
    106  C         17.2090   46.6260   26.4120 C.2   432  SER432      0.2618
    107  O         16.3950   47.2930   25.8040 O.2   432  SER432     -0.2717
    108  CB        18.2050   46.9620   28.7050 C.3   432  SER432      0.2103
    109  OG        18.3540   48.3640   28.4560 O.3   432  SER432     -0.2182
    110  N         18.2730   46.0810   25.8480 N.am  433  VAL433     -0.1979
    111  CA        18.5790   46.1940   24.4250 C.3   433  VAL433      0.1595
    112  C         17.5170   45.4280   23.6130 C.2   433  VAL433      0.2287
    113  O         16.9050   45.9810   22.6920 O.2   433  VAL433     -0.2864
    114  CB        20.0330   45.6910   24.1820 C.3   433  VAL433      0.0276
    115  CG1       20.4170   45.6930   22.7080 C.3   433  VAL433      0.0022
    116  CG2       21.0170   46.5600   24.9680 C.3   433  VAL433      0.0022
    117  N         17.6840   41.8160   22.3610 N.3   435  HIS435     -0.1241
    118  CA        18.1440   41.0440   21.2120 C.3   435  HIS435      0.1621
    119  C         18.2990   39.5650   21.5680 C.2   435  HIS435      0.2264
    120  O         18.7850   39.2500   22.6320 O.2   435  HIS435     -0.2867
    121  CB        19.4800   41.5930   20.7390 C.3   435  HIS435      0.0745
    122  CG        19.4260   42.9980   20.2260 C.ar  435  HIS435      0.0817
    123  ND1       20.5410   43.6460   19.7430 N.ar  435  HIS435     -0.2268
    124  CD2       18.3940   43.8610   20.0690 C.ar  435  HIS435      0.1154
    125  CE1       20.2120   44.8750   19.3750 C.ar  435  HIS435      0.1986
    126  NE2       18.9090   45.0220   19.5370 N.ar  435  HIS435     -0.2212
    127  N         20.5240   37.6190   20.5530 N.3   437  ASP437     -0.1225
    128  CA        21.9460   37.3350   20.7000 C.3   437  ASP437      0.1805
    129  C         22.4650   37.6290   22.1200 C.2   437  ASP437      0.2597
    130  O         23.5910   37.2610   22.4630 O.2   437  ASP437     -0.2718
    131  CB        22.7810   38.0050   19.5600 C.3   437  ASP437      0.1424
    132  CG        23.1110   39.4980   19.7810 C.2   437  ASP437      0.3668
    133  OD1       24.0460   39.9900   19.0760 O.co2 437  ASP437     -0.2456
    134  OD2       22.4760   40.1940   20.6150 O.co2 437  ASP437     -0.2456
    135  N         21.6250   38.2460   22.9560 N.am  438  GLU438     -0.1979
    136  CA        21.9700   38.4430   24.3470 C.3   438  GLU438      0.1602
    137  C         21.7220   37.2070   25.2060 C.2   438  GLU438      0.2287
    138  O         22.2130   37.1290   26.3220 O.2   438  GLU438     -0.2864
    139  CB        21.1840   39.6060   24.9220 C.3   438  GLU438      0.0415
    140  CG        21.4920   40.9080   24.2500 C.3   438  GLU438      0.1163
    141  CD        20.7590   42.0390   24.9140 C.2   438  GLU438      0.3649
    142  OE1       21.3330   42.6330   25.8480 O.co2 438  GLU438     -0.2457
    143  OE2       19.5950   42.2970   24.5330 O.co2 438  GLU438     -0.2457
    144  N         16.6050   49.9850   34.3500 N.3   539  GLU539     -0.1231
    145  CA        15.5660   50.9120   33.9290 C.3   539  GLU539      0.1699
    146  C         14.3960   50.1260   33.3800 C.2   539  GLU539      0.2592
    147  O         14.5800   49.2810   32.5210 O.2   539  GLU539     -0.2718
    148  CB        16.0820   51.8250   32.8210 C.3   539  GLU539      0.0402
    149  CG        17.3190   52.6610   33.1460 C.3   539  GLU539      0.1161
    150  CD        17.7790   53.4620   31.9270 C.2   539  GLU539      0.3649
    151  OE1       16.9290   54.1680   31.3090 O.co2 539  GLU539     -0.2457
    152  OE2       18.9820   53.3700   31.5840 O.co2 539  GLU539     -0.2457
    153  N         13.2010   50.4160   33.8820 N.am  540  PHE540     -0.1976
    154  CA        11.9780   49.7070   33.4950 C.3   540  PHE540      0.1639
    155  C         12.0350   48.1910   33.7670 C.2   540  PHE540      0.2290
    156  O         11.3290   47.4280   33.1300 O.2   540  PHE540     -0.2864
    157  CB        11.6370   49.9950   32.0270 C.3   540  PHE540      0.0560
    158  CG        11.6370   51.4660   31.6910 C.ar  540  PHE540     -0.0200
    159  CD1       10.5590   52.2690   32.0370 C.ar  540  PHE540     -0.0042
    160  CD2       12.7300   52.0500   31.0410 C.ar  540  PHE540     -0.0042
    161  CE1       10.5560   53.6330   31.7380 C.ar  540  PHE540     -0.0003
    162  CE2       12.7380   53.4060   30.7330 C.ar  540  PHE540     -0.0003
    163  CZ        11.6510   54.2000   31.0820 C.ar  540  PHE540     -0.0000
    164  N         14.2700   46.1590   33.0330 N.3   542  LYS542     -0.1245
    165  CA        14.8310   45.5180   31.8700 C.3   542  LYS542      0.1561
    166  C         16.2010   44.9800   32.2120 C.2   542  LYS542      0.2260
    167  O         16.9580   45.6230   32.9350 O.2   542  LYS542     -0.2867
    168  CB        14.9400   46.5200   30.7280 C.3   542  LYS542      0.0271
    169  CG        13.6140   47.0160   30.1850 C.3   542  LYS542      0.0035
    170  CD        12.7870   45.8800   29.5750 C.3   542  LYS542      0.0206
    171  CE        11.5980   46.4270   28.8000 C.3   542  LYS542      0.1093
    172  NZ        10.5390   45.4220   28.6020 N.3   542  LYS542     -0.1314
    173  N         27.2520   36.2740   24.0430 N.3   552  ASN552     -0.1240
    174  CA        27.3390   37.2360   22.9680 C.3   552  ASN552      0.1653
    175  C         28.7400   37.1710   22.3790 C.2   552  ASN552      0.2266
    176  O         29.5210   38.1310   22.4300 O.2   552  ASN552     -0.2867
    177  CB        26.9430   38.6350   23.5110 C.3   552  ASN552      0.1155
    178  CG        26.6950   39.6470   22.4170 C.2   552  ASN552      0.2627
    179  OD1       27.5680   40.4610   22.1010 O.2   552  ASN552     -0.2716
    180  ND2       25.5000   39.6020   21.8230 N.am  552  ASN552     -0.0877
    181  N         28.8370   49.7960   27.3480 N.3   603  ARG603     -0.1231
    182  CA        27.8310   50.4000   26.4650 C.3   603  ARG603      0.1694
    183  C         26.7470   49.3990   25.9820 C.2   603  ARG603      0.2592
    184  O         26.0750   49.6210   24.9600 O.2   603  ARG603     -0.2718
    185  CB        28.5380   51.0620   25.2810 C.3   603  ARG603      0.0321
    186  CG        29.6830   52.0070   25.7000 C.3   603  ARG603      0.0489
    187  CD        30.2610   52.7390   24.5060 C.3   603  ARG603      0.2205
    188  NE        31.3580   53.6230   24.9010 N.pl3 603  ARG603     -0.0865
    189  CZ        31.8770   54.5840   24.1370 C.cat 603  ARG603      0.5346
    190  NH1       31.4140   54.8100   22.9070 N.pl3 603  ARG603      0.1354
    191  NH2       32.8690   55.3330   24.6120 N.pl3 603  ARG603      0.1354
    192  N         26.5820   48.3080   26.7330 N.am  604  HIS604     -0.1962
    193  CA        25.4340   47.3960   26.5950 C.3   604  HIS604      0.1787
    194  C         25.5260   46.3980   25.4380 C.2   604  HIS604      0.2620
    195  O         24.5130   45.9900   24.8950 O.2   604  HIS604     -0.2715
    196  CB        24.1170   48.1840   26.5550 C.3   604  HIS604      0.0785
    197  CG        23.9230   49.0580   27.7500 C.ar  604  HIS604      0.0821
    198  ND1       23.2790   48.6220   28.8870 N.ar  604  HIS604     -0.2267
    199  CD2       24.3340   50.3260   28.0080 C.ar  604  HIS604      0.1154
    200  CE1       23.2850   49.5910   29.7900 C.ar  604  HIS604      0.1986
    201  NE2       23.9210   50.6340   29.2830 N.ar  604  HIS604     -0.2212
    202  N         26.7440   45.9900   25.0910 N.am  605  GLY605     -0.1954
    203  CA        26.9500   44.9300   24.1030 C.3   605  GLY605      0.1869
    204  C         28.3190   44.2940   24.2590 C.2   605  GLY605      0.2309
    205  O         29.1650   44.8210   24.9630 O.2   605  GLY605     -0.2863
    206  N         28.0430   41.6180   19.3500 N.3   609  ALA609     -0.1245
    207  CA        27.4210   42.8950   19.0480 C.3   609  ALA609      0.1562
    208  C         28.3520   43.8820   18.2900 C.2   609  ALA609      0.2260
    209  O         27.8700   44.6910   17.4810 O.2   609  ALA609     -0.2867
    210  CB        26.9040   43.5290   20.3500 C.3   609  ALA609      0.0290
@<TRIPOS>BOND
     1    71    70    2
     2    57    58    1
     3    59    58    1
     4    59    60    2
     5    68    69    1
     6    70    69    1
     7    58    61    1
     8    52    51    2
     9    51    50    1
    10    69    72    1
    11    62    61    1
    12    62    63    1
    13    43    42    2
    14    42    49   am
    15    42    41    1
    16    16    14   ar
    17    64    63    1
    18    64    65    2
    19    49    50    1
    20    41    40    1
    21    41    44    1
    22    50    53    1
    23    67    65    1
    24    72    73    1
    25    48    46   am
    26    29    28    2
    27    12    11    2
    28    47    46    2
    29    13    14    1
    30    13    10    1
    31    14    15   ar
    32    85    84    1
    33    85    86    2
    34    65    66    1
    35    46    45    1
    36    84    83    1
    37    84    87    1
    38     1     2    1
    39    73    74    1
    40    28    27    1
    41    53    54    1
    42    44    45    1
    43    89    90    1
    44     9    10    1
    45     9     3   am
    46    11    10    1
    47    11    17   am
    48    87    88    1
    49    74    75    1
    50     2     3    1
    51     2     5    1
    52    27    26    1
    53    27    30    1
    54    26    19   am
    55    90    91    1
    56     3     4    2
    57    54    55   ar
    58    54    56   ar
    59    19    20    2
    60    19    18    1
    61    17    18    1
    62    18    21    1
    63    91    92    2
    64     7     6   ar
    65     8     6   ar
    66    30    31    1
    67     6     5    1
    68   209   208    2
    69    75    76    2
    70    82    81    2
    71   208   207    1
    72    21    22    1
    73    81    80    1
    74    76    77    1
    75    76    78    1
    76    31    32   ar
    77    31    33   ar
    78    79    80    1
    79    32    34   ar
    80   207   206    1
    81   207   210    1
    82   133   132   ar
    83   125   126   ar
    84   125   123   ar
    85    22    23    1
    86   126   124   ar
    87   131   132    1
    88   131   128    1
    89   123   122   ar
    90   132   134   ar
    91    33    36   ar
    92    33    35   ar
    93   124   122   ar
    94    36    38   ar
    95   122   121    1
    96    34    35   ar
    97    95    96    2
    98    95    94    1
    99   127   128    1
   100   128   129    1
   101   121   118    1
   102    23    25   am
   103    23    24    2
   104    35    37   ar
   105   118   119    1
   106   118   117    1
   107    94    97    1
   108    94    93    1
   109    38    39   ar
   110   119   120    2
   111    97    98    1
   112   180   178   am
   113   179   178    2
   114   129   130    2
   115   129   135   am
   116    37    39   ar
   117   175   176    2
   118   175   174    1
   119   178   177    1
   120    99    98    1
   121    99   100    1
   122   113   112    2
   123   115   114    1
   124   100   101    2
   125   190   189    1
   126   135   136    1
   127   174   177    1
   128   174   173    1
   129   112   111    1
   130   101   103    1
   131   101   102    1
   132   203   204    1
   133   203   202    1
   134   189   191    1
   135   189   188    2
   136   114   111    1
   137   114   116    1
   138   140   141    1
   139   140   139    1
   140   204   205    2
   141   136   139    1
   142   136   137    1
   143   111   110    1
   144   187   188    1
   145   187   186    1
   146   143   141   ar
   147   195   194    2
   148   141   142   ar
   149   184   183    2
   150   202   194   am
   151   137   138    2
   152   185   186    1
   153   185   182    1
   154   194   193    1
   155   107   106    2
   156   110   106   am
   157   183   182    1
   158   183   192   am
   159   106   105    1
   160   182   181    1
   161   196   193    1
   162   196   197    1
   163   193   192    1
   164   197   199   ar
   165   197   198   ar
   166   105   104    1
   167   105   108    1
   168   199   201   ar
   169   109   108    1
   170   172   171    1
   171   171   170    1
   172   198   200   ar
   173   201   200   ar
   174   170   169    1
   175   169   168    1
   176   168   165    1
   177   162   160   ar
   178   162   163   ar
   179   160   158   ar
   180   163   161   ar
   181   151   150   ar
   182   152   150   ar
   183   158   157    1
   184   158   159   ar
   185   161   159   ar
   186   165   166    1
   187   165   164    1
   188   150   149    1
   189   157   154    1
   190   166   167    2
   191   147   146    2
   192   148   149    1
   193   148   145    1
   194   156   155    2
   195   146   153   am
   196   146   145    1
   197   154   155    1
   198   154   153    1
   199   145   144    1
