@<TRIPOS>MOLECULE
tmp/2deyA00.pdb
 181 172 0 0 0
SMALL
GASTEIGER

@<TRIPOS>ATOM
      1  N         37.7240   53.3710   16.3700 N.3   279  PHE279     -0.1241
      2  CA        37.3410   54.4790   17.2110 C.3   279  PHE279      0.1605
      3  C         38.3730   54.3280   18.3420 C.2   279  PHE279      0.2264
      4  O         39.4540   53.8240   18.0560 O.2   279  PHE279     -0.2867
      5  CB        35.8250   54.4760   17.5220 C.3   279  PHE279      0.0534
      6  CG        35.3740   53.4820   18.5390 C.ar  279  PHE279     -0.0203
      7  CD1       34.3060   53.8120   19.3640 C.ar  279  PHE279     -0.0042
      8  CD2       35.9700   52.2340   18.6780 C.ar  279  PHE279     -0.0042
      9  CE1       33.8470   52.9390   20.3160 C.ar  279  PHE279     -0.0003
     10  CE2       35.5110   51.3450   19.6410 C.ar  279  PHE279     -0.0003
     11  CZ        34.4470   51.6970   20.4590 C.ar  279  PHE279     -0.0000
     12  N         31.3780   57.4320   15.1520 N.3   309  ASP309     -0.1225
     13  CA        31.3880   56.9370   16.5490 C.3   309  ASP309      0.1805
     14  C         30.3900   55.8310   16.7820 C.2   309  ASP309      0.2598
     15  O         30.1050   55.4940   17.9310 O.2   309  ASP309     -0.2718
     16  CB        31.1150   58.0350   17.5930 C.3   309  ASP309      0.1424
     17  CG        31.9870   59.2530   17.4150 C.2   309  ASP309      0.3668
     18  OD1       31.4250   60.3580   17.2270 O.co2 309  ASP309     -0.2456
     19  OD2       33.2260   59.1040   17.4520 O.co2 309  ASP309     -0.2456
     20  N         29.8460   55.2810   15.6990 N.am  310  ASP310     -0.1960
     21  CA        28.9460   54.1390   15.7780 C.3   310  ASP310      0.1840
     22  C         29.7550   52.8520   15.6700 C.2   310  ASP310      0.2622
     23  O         30.1230   52.4280   14.5740 O.2   310  ASP310     -0.2715
     24  CB        27.8890   54.2150   14.6750 C.3   310  ASP310      0.1450
     25  CG        26.9390   53.0530   14.6920 C.2   310  ASP310      0.3671
     26  OD1       27.1500   52.1220   15.5180 O.co2 310  ASP310     -0.2456
     27  OD2       25.9820   53.0710   13.8600 O.co2 310  ASP310     -0.2456
     28  N         30.0240   52.2460   16.8190 N.am  311  GLN311     -0.1963
     29  CA        30.8660   51.0600   16.8930 C.3   311  GLN311      0.1733
     30  C         30.1290   49.7190   16.6890 C.2   311  GLN311      0.2616
     31  O         30.7800   48.6730   16.6730 O.2   311  GLN311     -0.2715
     32  CB        31.5490   51.0390   18.2540 C.3   311  GLN311      0.0408
     33  CG        30.6520   50.5540   19.3800 C.3   311  GLN311      0.0908
     34  CD        30.8600   51.3190   20.6380 C.2   311  GLN311      0.2608
     35  OE1       31.5520   50.8630   21.5350 O.2   311  GLN311     -0.2717
     36  NE2       30.2890   52.5170   20.7050 N.am  311  GLN311     -0.0878
     37  N         28.8010   49.7490   16.5360 N.am  312  TRP312     -0.1974
     38  CA        27.9620   48.4930   16.5990 C.3   312  TRP312      0.1640
     39  C         27.7140   47.8470   15.2500 C.2   312  TRP312      0.2290
     40  O         26.5810   47.8480   14.7580 O.2   312  TRP312     -0.2864
     41  CB        26.6220   48.7490   17.3110 C.3   312  TRP312      0.0576
     42  CG        26.8530   49.4090   18.6270 C.ar  312  TRP312      0.0006
     43  CD1       26.6380   50.7240   18.9370 C.ar  312  TRP312      0.0946
     44  CD2       27.4300   48.8070   19.7850 C.ar  312  TRP312      0.0152
     45  NE1       27.0290   50.9660   20.2240 N.ar  312  TRP312     -0.2442
     46  CE2       27.5030   49.8020   20.7770 C.ar  312  TRP312      0.0810
     47  CE3       27.8680   47.5180   20.0910 C.ar  312  TRP312      0.0012
     48  CZ2       28.0090   49.5470   22.0640 C.ar  312  TRP312      0.0191
     49  CZ3       28.3840   47.2750   21.3700 C.ar  312  TRP312      0.0001
     50  CH2       28.4420   48.2820   22.3350 C.ar  312  TRP312      0.0015
     51  N         27.4000   44.9300   14.2160 N.3   314  GLN314     -0.1231
     52  CA        26.3680   43.8770   14.1900 C.3   314  GLN314      0.1698
     53  C         24.9970   44.4130   13.8060 C.2   314  GLN314      0.2592
     54  O         24.1770   43.6820   13.2480 O.2   314  GLN314     -0.2718
     55  CB        26.2660   43.1940   15.5650 C.3   314  GLN314      0.0381
     56  CG        25.1030   42.2380   15.7630 C.3   314  GLN314      0.0905
     57  CD        25.2350   40.9430   14.9470 C.2   314  GLN314      0.2608
     58  OE1       24.2540   40.2500   14.7690 O.2   314  GLN314     -0.2717
     59  NE2       26.4410   40.6360   14.4400 N.am  314  GLN314     -0.0878
     60  N         24.7420   45.6820   14.0940 N.am  315  ASP315     -0.1974
     61  CA        23.3690   46.1700   14.1990 C.3   315  ASP315      0.1709
     62  C         22.7170   46.8180   12.9380 C.2   315  ASP315      0.2293
     63  O         21.5070   46.6760   12.7600 O.2   315  ASP315     -0.2864
     64  CB        23.2760   47.1020   15.4230 C.3   315  ASP315      0.1436
     65  CG        23.3450   46.3380   16.7790 C.2   315  ASP315      0.3671
     66  OD1       23.0710   45.0800   16.8600 O.co2 315  ASP315     -0.2456
     67  OD2       23.6640   47.0270   17.7680 O.co2 315  ASP315     -0.2456
     68  N         17.7690   50.9880   11.1940 N.3   337  ARG337     -0.1245
     69  CA        18.4440   51.5840   12.3490 C.3   337  ARG337      0.1563
     70  C         18.9460   52.9790   12.0360 C.2   337  ARG337      0.2260
     71  O         18.6910   53.9070   12.7930 O.2   337  ARG337     -0.2867
     72  CB        19.6240   50.7310   12.7960 C.3   337  ARG337      0.0307
     73  CG        20.3140   51.2920   14.0020 C.3   337  ARG337      0.0489
     74  CD        21.2170   50.2800   14.7130 C.3   337  ARG337      0.2205
     75  NE        22.5940   50.3410   14.2150 N.pl3 337  ARG337     -0.0865
     76  CZ        23.6750   50.7680   14.8710 C.cat 337  ARG337      0.5346
     77  NH1       23.6530   51.1600   16.1370 N.pl3 337  ARG337      0.1354
     78  NH2       24.8280   50.7590   14.2350 N.pl3 337  ARG337      0.1354
     79  N         21.9670   54.7200   11.9930 N.3   339  ARG339     -0.1245
     80  CA        22.8230   55.4350   12.9320 C.3   339  ARG339      0.1563
     81  C         24.1650   55.7820   12.2680 C.2   339  ARG339      0.2260
     82  O         24.2020   56.0260   11.0510 O.2   339  ARG339     -0.2867
     83  CB        22.9080   54.6550   14.2560 C.3   339  ARG339      0.0307
     84  CG        21.6590   54.9490   15.0730 C.3   339  ARG339      0.0489
     85  CD        21.2710   53.8770   16.0250 C.3   339  ARG339      0.2205
     86  NE        22.1890   53.8210   17.1420 N.pl3 339  ARG339     -0.0865
     87  CZ        22.0050   53.0780   18.2360 C.cat 339  ARG339      0.5346
     88  NH1       20.8930   52.3330   18.3840 N.pl3 339  ARG339      0.1354
     89  NH2       22.9440   53.0900   19.1860 N.pl3 339  ARG339      0.1354
     90  N         14.7490   49.7020   18.8230 N.3   368  GLY368     -0.1225
     91  CA        15.9590   48.9310   19.0480 C.3   368  GLY368      0.1811
     92  C         15.8390   47.5110   18.5390 C.2   368  GLY368      0.2280
     93  O         16.8410   46.8300   18.3060 O.2   368  GLY368     -0.2866
     94  N         17.4970   46.8100   15.0360 N.3   371  SER371     -0.1217
     95  CA        18.9400   46.6110   14.9920 C.3   371  SER371      0.1889
     96  C         19.2010   45.1160   14.8690 C.2   371  SER371      0.2288
     97  O         18.5010   44.3190   15.4700 O.2   371  SER371     -0.2866
     98  CB        19.5650   47.1400   16.2640 C.3   371  SER371      0.2089
     99  OG        19.4110   48.5510   16.3270 O.3   371  SER371     -0.2183
    100  N         21.3900   42.8010   15.6340 N.3   373  GLY373     -0.1225
    101  CA        21.7340   41.8490   16.6700 C.3   373  GLY373      0.1811
    102  C         20.4730   41.1610   17.1680 C.2   373  GLY373      0.2280
    103  O         20.5350   40.1060   17.8540 O.2   373  GLY373     -0.2866
    104  N         17.0940   45.4190   28.1320 N.3   433  SER433     -0.1202
    105  CA        17.1450   46.8370   27.8620 C.3   433  SER433      0.2020
    106  C         17.3790   47.0770   26.3850 C.2   433  SER433      0.2618
    107  O         16.6490   47.8130   25.7640 O.2   433  SER433     -0.2717
    108  CB        18.2650   47.4610   28.6690 C.3   433  SER433      0.2103
    109  OG        18.4090   48.8350   28.3260 O.3   433  SER433     -0.2182
    110  N         18.3910   46.4130   25.8190 N.am  434  VAL434     -0.1979
    111  CA        18.7360   46.6140   24.4120 C.3   434  VAL434      0.1595
    112  C         17.7080   45.9020   23.5340 C.2   434  VAL434      0.2287
    113  O         17.1950   46.4590   22.5610 O.2   434  VAL434     -0.2864
    114  CB        20.2070   46.2070   24.1300 C.3   434  VAL434      0.0276
    115  CG1       20.4800   46.0390   22.6300 C.3   434  VAL434      0.0022
    116  CG2       21.1240   47.2820   24.6940 C.3   434  VAL434      0.0022
    117  N         17.7870   42.3450   22.2260 N.3   436  HIS436     -0.1241
    118  CA        18.2000   41.5460   21.0710 C.3   436  HIS436      0.1621
    119  C         18.4100   40.1070   21.4460 C.2   436  HIS436      0.2264
    120  O         18.9320   39.8310   22.5220 O.2   436  HIS436     -0.2867
    121  CB        19.5280   42.0300   20.5190 C.3   436  HIS436      0.0745
    122  CG        19.5380   43.4590   20.0870 C.ar  436  HIS436      0.0817
    123  ND1       20.6620   44.0380   19.5550 N.ar  436  HIS436     -0.2268
    124  CD2       18.5760   44.4170   20.0890 C.ar  436  HIS436      0.1154
    125  CE1       20.4080   45.3110   19.2970 C.ar  436  HIS436      0.1986
    126  NE2       19.1450   45.5600   19.5970 N.ar  436  HIS436     -0.2212
    127  N         20.7390   38.2670   20.4700 N.3   438  ASP438     -0.1225
    128  CA        22.1750   37.9770   20.5680 C.3   438  ASP438      0.1805
    129  C         22.7030   38.2080   22.0040 C.2   438  ASP438      0.2597
    130  O         23.7770   37.7510   22.3650 O.2   438  ASP438     -0.2718
    131  CB        23.0270   38.6550   19.4420 C.3   438  ASP438      0.1424
    132  CG        23.3430   40.1400   19.6770 C.2   438  ASP438      0.3668
    133  OD1       24.2920   40.6470   18.9700 O.co2 438  ASP438     -0.2456
    134  OD2       22.6500   40.7970   20.5230 O.co2 438  ASP438     -0.2456
    135  N         21.9030   38.8710   22.8280 N.am  439  GLU439     -0.1979
    136  CA        22.1950   38.9760   24.2610 C.3   439  GLU439      0.1602
    137  C         21.9080   37.7180   25.1040 C.2   439  GLU439      0.2287
    138  O         22.3250   37.6360   26.2410 O.2   439  GLU439     -0.2864
    139  CB        21.3960   40.1120   24.8430 C.3   439  GLU439      0.0415
    140  CG        21.6430   41.4480   24.1410 C.3   439  GLU439      0.1163
    141  CD        20.9740   42.5520   24.8720 C.2   439  GLU439      0.3649
    142  OE1       21.6080   43.0370   25.8350 O.co2 439  GLU439     -0.2457
    143  OE2       19.8180   42.8960   24.5120 O.co2 439  GLU439     -0.2457
    144  N         27.4130   36.6400   23.9170 N.3   553  ASN553     -0.1240
    145  CA        27.5130   37.6300   22.8430 C.3   553  ASN553      0.1653
    146  C         28.9220   37.6060   22.2690 C.2   553  ASN553      0.2266
    147  O         29.6780   38.6020   22.3130 O.2   553  ASN553     -0.2867
    148  CB        27.1660   39.0180   23.3980 C.3   553  ASN553      0.1155
    149  CG        26.8000   39.9970   22.3340 C.2   553  ASN553      0.2627
    150  OD1       27.5960   40.8610   21.9480 O.2   553  ASN553     -0.2716
    151  ND2       25.5930   39.8830   21.8480 N.am  553  ASN553     -0.0877
    152  N         29.1190   50.2610   27.3790 N.3   604  ARG604     -0.1231
    153  CA        28.1070   50.8300   26.4550 C.3   604  ARG604      0.1694
    154  C         27.0220   49.8210   25.9710 C.2   604  ARG604      0.2592
    155  O         26.3390   50.0460   24.9480 O.2   604  ARG604     -0.2718
    156  CB        28.7970   51.5020   25.2570 C.3   604  ARG604      0.0321
    157  CG        29.1400   52.9780   25.4660 C.3   604  ARG604      0.0489
    158  CD        30.5270   53.1400   25.9590 C.3   604  ARG604      0.2205
    159  NE        31.5180   53.0170   24.8790 N.pl3 604  ARG604     -0.0865
    160  CZ        32.3880   53.9750   24.5140 C.cat 604  ARG604      0.5346
    161  NH1       32.4000   55.1750   25.1000 N.pl3 604  ARG604      0.1354
    162  NH2       33.2700   53.7300   23.5460 N.pl3 604  ARG604      0.1354
    163  N         26.8740   48.7200   26.7150 N.am  605  HIS605     -0.1962
    164  CA        25.7100   47.8080   26.6060 C.3   605  HIS605      0.1787
    165  C         25.6940   46.8460   25.4090 C.2   605  HIS605      0.2620
    166  O         24.6310   46.4410   24.9340 O.2   605  HIS605     -0.2715
    167  CB        24.3990   48.6080   26.6950 C.3   605  HIS605      0.0785
    168  CG        24.3760   49.5860   27.8320 C.ar  605  HIS605      0.0821
    169  ND1       24.4140   50.9540   27.6430 N.ar  605  HIS605     -0.2267
    170  CD2       24.3550   49.3930   29.1730 C.ar  605  HIS605      0.1154
    171  CE1       24.3940   51.5610   28.8180 C.ar  605  HIS605      0.1986
    172  NE2       24.3520   50.6380   29.7630 N.ar  605  HIS605     -0.2212
    173  N         26.8800   46.4580   24.9500 N.am  606  GLY606     -0.1954
    174  CA        27.0100   45.3760   23.9690 C.3   606  GLY606      0.1869
    175  C         28.3710   44.7450   24.1250 C.2   606  GLY606      0.2309
    176  O         29.1890   45.2510   24.8830 O.2   606  GLY606     -0.2863
    177  N         28.1380   42.0210   19.1880 N.3   610  ALA610     -0.1245
    178  CA        27.5720   43.3480   18.9420 C.3   610  ALA610      0.1562
    179  C         28.4900   44.3460   18.1890 C.2   610  ALA610      0.2260
    180  O         28.0000   45.1830   17.4140 O.2   610  ALA610     -0.2867
    181  CB        27.1440   43.9600   20.2760 C.3   610  ALA610      0.0290
@<TRIPOS>BOND
     1    82    81    2
     2    68    69    1
     3    79    80    1
     4    70    69    1
     5    70    71    2
     6    81    80    1
     7    69    72    1
     8    63    62    2
     9    72    73    1
    10    80    83    1
    11    62    61    1
    12    54    53    2
    13    53    60   am
    14    53    52    1
    15    27    25   ar
    16    73    74    1
    17    60    61    1
    18    52    51    1
    19    52    55    1
    20    61    64    1
    21    75    74    1
    22    75    76    2
    23    78    76    1
    24    83    84    1
    25    59    57   am
    26    23    22    2
    27    24    25    1
    28    24    21    1
    29    25    26   ar
    30    40    39    2
    31    58    57    2
    32    96    95    1
    33    96    97    2
    34    76    77    1
    35    57    56    1
    36    95    94    1
    37    95    98    1
    38    84    85    1
    39    12    13    1
    40    39    38    1
    41    64    65    1
    42    55    56    1
    43   100   101    1
    44    22    21    1
    45    22    28   am
    46    20    21    1
    47    20    14   am
    48    85    86    1
    49    98    99    1
    50     1     2    1
    51    37    38    1
    52    37    30   am
    53    13    14    1
    54    13    16    1
    55    38    41    1
    56   101   102    1
    57    31    30    2
    58    30    29    1
    59    65    66   ar
    60    65    67   ar
    61    14    15    2
    62    28    29    1
    63    29    32    1
    64    86    87    2
    65   102   103    2
    66     2     5    1
    67     2     3    1
    68    18    17   ar
    69    41    42    1
    70   180   179    2
    71    17    19   ar
    72    17    16    1
    73     5     6    1
    74     4     3    2
    75   179   178    1
    76    87    88    1
    77    87    89    1
    78    32    33    1
    79    93    92    2
    80     6     8   ar
    81     6     7   ar
    82    92    91    1
    83    42    43   ar
    84    42    44   ar
    85     8    10   ar
    86    90    91    1
    87    43    45   ar
    88   178   177    1
    89   178   181    1
    90   133   132   ar
    91   125   123   ar
    92   125   126   ar
    93     7     9   ar
    94    33    34    1
    95   131   132    1
    96   131   128    1
    97   123   122   ar
    98   126   124   ar
    99    10    11   ar
   100   132   134   ar
   101    44    47   ar
   102    44    46   ar
   103   122   124   ar
   104   122   121    1
   105    47    49   ar
   106    45    46   ar
   107     9    11   ar
   108   127   128    1
   109   121   118    1
   110   128   129    1
   111    34    36   am
   112    34    35    2
   113    46    48   ar
   114   118   119    1
   115   118   117    1
   116    49    50   ar
   117   119   120    2
   118   151   149   am
   119   150   149    2
   120   129   130    2
   121   129   135   am
   122    48    50   ar
   123   146   147    2
   124   146   145    1
   125   149   148    1
   126   113   112    2
   127   115   114    1
   128   135   136    1
   129   145   148    1
   130   145   144    1
   131   112   111    1
   132   162   160    1
   133   174   175    1
   134   174   173    1
   135   175   176    2
   136   114   111    1
   137   114   116    1
   138   140   139    1
   139   140   141    1
   140   136   139    1
   141   136   137    1
   142   111   110    1
   143   143   141   ar
   144   160   159    2
   145   160   161    1
   146   141   142   ar
   147   159   158    1
   148   166   165    2
   149   155   154    2
   150   173   165   am
   151   137   138    2
   152   156   157    1
   153   156   153    1
   154   165   164    1
   155   157   158    1
   156   107   106    2
   157   110   106   am
   158   154   153    1
   159   154   163   am
   160   106   105    1
   161   153   152    1
   162   164   167    1
   163   164   163    1
   164   167   168    1
   165   169   168   ar
   166   169   171   ar
   167   168   170   ar
   168   105   104    1
   169   105   108    1
   170   109   108    1
   171   171   172   ar
   172   170   172   ar
