@<TRIPOS>MOLECULE
tmp/2df6B00.pdb
 155 154 0 0 0
SMALL
GASTEIGER

@<TRIPOS>ATOM
      1  N         25.4160   23.1660    9.6540 N.3    11  PHE11      -0.1241
      2  CA        26.5350   23.9680   10.1120 C.3    11  PHE11       0.1605
      3  C         26.3730   24.2600   11.5790 C.2    11  PHE11       0.2264
      4  O         25.2810   24.1490   12.1390 O.2    11  PHE11      -0.2867
      5  CB        26.5690   25.3090    9.3830 C.3    11  PHE11       0.0534
      6  CG        26.4070   25.1980    7.9030 C.ar   11  PHE11      -0.0203
      7  CD1       27.4020   24.6220    7.1240 C.ar   11  PHE11      -0.0042
      8  CD2       25.2520   25.6610    7.2850 C.ar   11  PHE11      -0.0042
      9  CE1       27.2510   24.5110    5.7490 C.ar   11  PHE11      -0.0003
     10  CE2       25.0900   25.5540    5.9100 C.ar   11  PHE11      -0.0003
     11  CZ        26.0920   24.9770    5.1410 C.ar   11  PHE11      -0.0000
     12  N         25.9890   26.6030   14.6670 N.3    13  PHE13      -0.1227
     13  CA        25.3400   27.8780   14.7970 C.3    13  PHE13       0.1736
     14  C         25.4020   28.2720   16.2410 C.2    13  PHE13       0.2595
     15  O         25.0170   27.5080   17.1180 O.2    13  PHE13      -0.2718
     16  CB        23.8790   27.8400   14.3860 C.3    13  PHE13       0.0547
     17  CG        23.1610   29.1080   14.7040 C.ar   13  PHE13      -0.0202
     18  CD1       23.5290   30.2960   14.0860 C.ar   13  PHE13      -0.0042
     19  CD2       22.1810   29.1390   15.6840 C.ar   13  PHE13      -0.0042
     20  CE1       22.9350   31.4960   14.4410 C.ar   13  PHE13      -0.0003
     21  CE2       21.5800   30.3380   16.0470 C.ar   13  PHE13      -0.0003
     22  CZ        21.9620   31.5190   15.4240 C.ar   13  PHE13      -0.0000
     23  N         25.9160   29.4590   16.4960 N.am   14  GLN14      -0.1979
     24  CA        25.9510   29.9230   17.8550 C.3    14  GLN14       0.1601
     25  C         24.9940   31.0830   17.9250 C.2    14  GLN14       0.2287
     26  O         25.0690   32.0220   17.1360 O.2    14  GLN14      -0.2864
     27  CB        27.3390   30.3670   18.2730 C.3    14  GLN14       0.0394
     28  CG        27.3210   30.9170   19.6780 C.3    14  GLN14       0.0908
     29  CD        28.6910   31.2270   20.1970 C.2    14  GLN14       0.2608
     30  OE1       28.8680   32.1620   20.9680 O.2    14  GLN14      -0.2717
     31  NE2       29.6730   30.4360   19.7870 N.am   14  GLN14      -0.0878
     32  N         22.9000   34.3470   18.5160 N.3    16  THR16      -0.1203
     33  CA        23.2930   35.7430   18.4610 C.3    16  THR16       0.1994
     34  C         22.2740   36.5170   19.2780 C.2    16  THR16       0.2617
     35  O         22.3000   37.7450   19.3380 O.2    16  THR16      -0.2717
     36  CB        23.2910   36.2590   17.0190 C.3    16  THR16       0.1784
     37  OG1       21.9650   36.1760   16.4820 O.3    16  THR16      -0.2211
     38  CG2       24.2320   35.4240   16.1610 C.3    16  THR16       0.0376
     39  N         21.3620   35.7710   19.8910 N.am   17  ASN17      -0.1974
     40  CA        20.3270   36.3310   20.7450 C.3    17  ASN17       0.1688
     41  C         19.9860   35.2770   21.7860 C.2    17  ASN17       0.2292
     42  O         20.1730   34.0830   21.5530 O.2    17  ASN17      -0.2864
     43  CB        19.0780   36.6960   19.9370 C.3    17  ASN17       0.1181
     44  CG        19.2960   37.8970   19.0340 C.2    17  ASN17       0.2629
     45  OD1       19.6940   37.7600   17.8770 O.2    17  ASN17      -0.2716
     46  ND2       19.0510   39.0850   19.5690 N.am   17  ASN17      -0.0877
     47  N         17.2540   34.1520   22.6230 N.3    19  ASP19      -0.1225
     48  CA        16.1770   33.2790   22.1770 C.3    19  ASP19       0.1805
     49  C         16.5550   32.4730   20.9500 C.2    19  ASP19       0.2597
     50  O         15.6950   31.9710   20.2330 O.2    19  ASP19      -0.2718
     51  CB        14.9300   34.1040   21.8780 C.3    19  ASP19       0.1424
     52  CG        15.1070   35.0110   20.6820 C.2    19  ASP19       0.3668
     53  OD1       16.2620   35.2410   20.2640 O.co2  19  ASP19      -0.2456
     54  OD2       14.0830   35.5040   20.1640 O.co2  19  ASP19      -0.2456
     55  N         17.8490   32.3620   20.7020 N.am   20  GLU20      -0.1979
     56  CA        18.3130   31.5990   19.5690 C.3    20  GLU20       0.1602
     57  C         18.9900   30.3550   20.0600 C.2    20  GLU20       0.2287
     58  O         19.5730   30.3400   21.1390 O.2    20  GLU20      -0.2864
     59  CB        19.2820   32.4240   18.7430 C.3    20  GLU20       0.0415
     60  CG        18.5500   33.4300   17.8990 C.3    20  GLU20       0.1163
     61  CD        19.4630   34.4350   17.2560 C.2    20  GLU20       0.3649
     62  OE1       20.6680   34.1490   17.1230 O.co2  20  GLU20      -0.2457
     63  OE2       18.9630   35.5090   16.8700 O.co2  20  GLU20      -0.2457
     64  N          8.6210   26.2270   14.7110 N.3    33  ARG33      -0.1245
     65  CA         8.0210   27.2980   13.9420 C.3    33  ARG33       0.1563
     66  C          8.7880   27.5280   12.6600 C.2    33  ARG33       0.2260
     67  O          9.9780   27.8240   12.6770 O.2    33  ARG33      -0.2867
     68  CB         7.9920   28.5740   14.7800 C.3    33  ARG33       0.0307
     69  CG         7.2760   29.7540   14.1520 C.3    33  ARG33       0.0489
     70  CD         7.0970   30.8490   15.1920 C.3    33  ARG33       0.2205
     71  NE         6.6720   32.1140   14.6080 N.pl3  33  ARG33      -0.0865
     72  CZ         6.5380   33.2390   15.3010 C.cat  33  ARG33       0.5346
     73  NH1        6.7970   33.2490   16.6030 N.pl3  33  ARG33       0.1354
     74  NH2        6.1520   34.3530   14.6930 N.pl3  33  ARG33       0.1354
     75  N          9.2890   29.8440    9.6980 N.3    35  GLU35      -0.1231
     76  CA         9.0360   31.2240    9.3400 C.3    35  GLU35       0.1699
     77  C          9.8600   31.6020    8.1330 C.2    35  GLU35       0.2592
     78  O         10.9610   31.0970    7.9340 O.2    35  GLU35      -0.2718
     79  CB         9.4160   32.1570   10.4940 C.3    35  GLU35       0.0402
     80  CG         8.5180   32.0850   11.7130 C.3    35  GLU35       0.1161
     81  CD         7.1080   32.5560   11.4180 C.2    35  GLU35       0.3649
     82  OE1        6.9590   33.5340   10.6570 O.co2  35  GLU35      -0.2457
     83  OE2        6.1550   31.9590   11.9580 O.co2  35  GLU35      -0.2457
     84  N          9.3080   32.4920    7.3210 N.am   36  GLU36      -0.1966
     85  CA        10.0120   32.9910    6.1580 C.3    36  GLU36       0.1733
     86  C         10.9810   33.9980    6.7470 C.2    36  GLU36       0.2617
     87  O         10.7340   34.5370    7.8250 O.2    36  GLU36      -0.2715
     88  CB         9.0440   33.7250    5.2340 C.3    36  GLU36       0.0429
     89  CG         7.9150   32.8680    4.7240 C.3    36  GLU36       0.1163
     90  CD         8.3730   31.8990    3.6630 C.2    36  GLU36       0.3649
     91  OE1        7.6350   31.0000    3.2720 O.co2  36  GLU36      -0.2457
     92  OE2        9.5980   32.0810    3.1810 O.co2  36  GLU36      -0.2457
     93  N         12.0800   34.2520    6.0540 N.am   37  GLY37      -0.1940
     94  CA        13.0150   35.2360    6.5570 C.3    37  GLY37       0.2014
     95  C         14.3850   34.7170    6.9160 C.2    37  GLY37       0.2639
     96  O         15.2450   35.4960    7.3100 O.2    37  GLY37      -0.2714
     97  N         14.5920   33.4110    6.7980 N.am   38  GLY38      -0.1939
     98  CA        15.8980   32.8570    7.1000 C.3    38  GLY38       0.2014
     99  C         16.0410   32.3100    8.5030 C.2    38  GLY38       0.2638
    100  O         17.1050   31.8110    8.8650 O.2    38  GLY38      -0.2714
    101  N         14.9790   32.4020    9.2920 N.am   39  TRP39      -0.1973
    102  CA        15.0220   31.9010   10.6500 C.3    39  TRP39       0.1640
    103  C         13.8130   31.0920   11.0040 C.2    39  TRP39       0.2290
    104  O         12.6780   31.4600   10.6960 O.2    39  TRP39      -0.2864
    105  CB        15.1210   33.0410   11.6440 C.3    39  TRP39       0.0576
    106  CG        16.4140   33.7290   11.5940 C.ar   39  TRP39       0.0006
    107  CD1       16.8290   34.6320   10.6630 C.ar   39  TRP39       0.0946
    108  CD2       17.4910   33.5690   12.5110 C.ar   39  TRP39       0.0152
    109  NE1       18.1030   35.0480   10.9460 N.ar   39  TRP39      -0.2442
    110  CE2       18.5340   34.4090   12.0780 C.ar   39  TRP39       0.0810
    111  CE3       17.6760   32.7950   13.6620 C.ar   39  TRP39       0.0012
    112  CZ2       19.7480   34.5020   12.7550 C.ar   39  TRP39       0.0191
    113  CZ3       18.8820   32.8850   14.3370 C.ar   39  TRP39       0.0001
    114  CH2       19.9040   33.7330   13.8810 C.ar   39  TRP39       0.0015
    115  N         15.4210   30.2430   18.1220 N.3    50  TRP50      -0.1241
    116  CA        15.4480   30.5200   16.7150 C.3    50  TRP50       0.1605
    117  C         16.8030   30.1660   16.1860 C.2    50  TRP50       0.2264
    118  O         17.8040   30.2100   16.8970 O.2    50  TRP50      -0.2867
    119  CB        15.1700   31.9880   16.4750 C.3    50  TRP50       0.0550
    120  CG        13.7960   32.3330   16.8330 C.ar   50  TRP50       0.0003
    121  CD1       13.3270   32.6680   18.0640 C.ar   50  TRP50       0.0946
    122  CD2       12.6730   32.3220   15.9590 C.ar   50  TRP50       0.0152
    123  NE1       11.9690   32.8680   18.0140 N.ar   50  TRP50      -0.2442
    124  CE2       11.5420   32.6610   16.7290 C.ar   50  TRP50       0.0810
    125  CE3       12.5100   32.0530   14.5950 C.ar   50  TRP50       0.0012
    126  CZ2       10.2620   32.7430   16.1800 C.ar   50  TRP50       0.0191
    127  CZ3       11.2380   32.1330   14.0490 C.ar   50  TRP50       0.0001
    128  CH2       10.1300   32.4760   14.8420 C.ar   50  TRP50       0.0015
    129  N         19.0600   29.8290   12.1310 N.3    52  PRO52      -0.2116
    130  CA        19.0320   30.0800   10.6910 C.3    52  PRO52       0.1372
    131  C         18.4290   28.8710   10.0090 C.2    52  PRO52       0.2244
    132  O         18.9280   27.7610   10.1500 O.2    52  PRO52      -0.2868
    133  CB        20.5020   30.2590   10.3390 C.3    52  PRO52       0.0268
    134  CG        21.1270   30.6980   11.6340 C.3    52  PRO52       0.0207
    135  CD        20.4380   29.8440   12.6440 C.3    52  PRO52       0.0892
    136  N         18.5470   28.2090    7.0150 N.3    54  ASN54      -0.1225
    137  CA        19.4510   27.7510    5.9760 C.3    54  ASN54       0.1785
    138  C         20.6090   26.9720    6.5810 C.2    54  ASN54       0.2597
    139  O         21.4680   26.4710    5.8680 O.2    54  ASN54      -0.2718
    140  CB        19.9720   28.9420    5.1730 C.3    54  ASN54       0.1169
    141  CG        20.7620   29.9090    6.0170 C.2    54  ASN54       0.2627
    142  OD1       20.3640   30.2440    7.1300 O.2    54  ASN54      -0.2716
    143  ND2       21.8830   30.3780    5.4880 N.am   54  ASN54      -0.0877
    144  N         20.6110   26.8500    7.9040 N.am   55  TYR55      -0.1976
    145  CA        21.6720   26.1290    8.5910 C.3    55  TYR55       0.1639
    146  C         21.2910   24.7030    8.8870 C.2    55  TYR55       0.2290
    147  O         22.0600   23.9640    9.4880 O.2    55  TYR55      -0.2864
    148  CB        22.0230   26.8290    9.8930 C.3    55  TYR55       0.0560
    149  CG        23.1540   27.8000    9.7410 C.ar   55  TYR55      -0.0198
    150  CD1       23.1610   28.7320    8.7050 C.ar   55  TYR55      -0.0009
    151  CD2       24.2310   27.7780   10.6180 C.ar   55  TYR55      -0.0009
    152  CE1       24.2200   29.6140    8.5470 C.ar   55  TYR55       0.0417
    153  CE2       25.2930   28.6580   10.4720 C.ar   55  TYR55       0.0417
    154  CZ        25.2820   29.5710    9.4330 C.ar   55  TYR55       0.1957
    155  OH        26.3400   30.4340    9.2800 O.3    55  TYR55      -0.2866
@<TRIPOS>BOND
     1    92    90   ar
     2    91    90   ar
     3    90    89    1
     4    89    88    1
     5    11     9   ar
     6    11    10   ar
     7   140   137    1
     8   140   141    1
     9    88    85    1
    10   143   141   am
    11     9     7   ar
    12   139   138    2
    13    10     8   ar
    14   137   138    1
    15   137   136    1
    16   141   142    2
    17    93    94    1
    18    93    86   am
    19    85    86    1
    20    85    84    1
    21    94    95    1
    22   138   144   am
    23    86    87    2
    24    97    95   am
    25    97    98    1
    26    95    96    2
    27    98    99    1
    28     7     6   ar
    29     8     6   ar
    30    84    77   am
    31     6     5    1
    32   144   145    1
    33    78    77    2
    34    77    76    1
    35    99   100    2
    36    99   101   am
    37   152   150   ar
    38   152   154   ar
    39   145   146    1
    40   145   148    1
    41   150   149   ar
    42   146   147    2
    43   155   154    1
    44   101   102    1
    45    76    75    1
    46    76    79    1
    47     5     2    1
    48   154   153   ar
    49     1     2    1
    50   149   148    1
    51   149   151   ar
    52   131   132    2
    53   131   130    1
    54     2     3    1
    55   133   130    1
    56   133   134    1
    57   153   151   ar
    58    79    80    1
    59   102   103    1
    60   102   105    1
    61    82    81   ar
    62   107   109   ar
    63   107   106   ar
    64   130   129    1
    65   104   103    2
    66   109   110   ar
    67    81    80    1
    68    81    83   ar
    69     3     4    2
    70   106   105    1
    71   106   108   ar
    72   134   135    1
    73   110   108   ar
    74   110   112   ar
    75   129   135    1
    76   108   111   ar
    77    66    67    2
    78    66    65    1
    79   112   114   ar
    80   111   113   ar
    81   114   113   ar
    82    65    64    1
    83    65    68    1
    84   127   125   ar
    85   127   128   ar
    86    18    20   ar
    87    18    17   ar
    88    69    68    1
    89    69    70    1
    90    16    17    1
    91    16    13    1
    92    20    22   ar
    93   125   122   ar
    94    71    70    1
    95    71    72    2
    96    12    13    1
    97    74    72    1
    98    17    19   ar
    99    13    14    1
   100   128   126   ar
   101    72    73    1
   102    22    21   ar
   103    19    21   ar
   104   122   124   ar
   105   122   120   ar
   106    38    36    1
   107   126   124   ar
   108   117   116    1
   109   117   118    2
   110    14    23   am
   111    14    15    2
   112   119   116    1
   113   119   120    1
   114    37    36    1
   115    23    24    1
   116   116   115    1
   117   124   123   ar
   118   120   121   ar
   119    63    61   ar
   120    36    33    1
   121    62    61   ar
   122    26    25    2
   123    61    60    1
   124    24    25    1
   125    24    27    1
   126    45    44    2
   127    60    59    1
   128   123   121   ar
   129    27    28    1
   130    33    32    1
   131    33    34    1
   132    59    56    1
   133    44    46   am
   134    44    43    1
   135    34    35    2
   136    34    39   am
   137    56    57    1
   138    56    55    1
   139    28    29    1
   140    31    29   am
   141    39    40    1
   142    43    40    1
   143    57    58    2
   144    54    52   ar
   145    29    30    2
   146    50    49    2
   147    53    52   ar
   148    52    51    1
   149    55    49   am
   150    40    41    1
   151    49    48    1
   152    42    41    2
   153    51    48    1
   154    48    47    1
