@<TRIPOS>MOLECULE
tmp/2df8A00.pdb
 130 124 0 0 0
SMALL
GASTEIGER

@<TRIPOS>ATOM
      1  N         -3.1860  -11.6470   13.0060 N.3    39  CYS39      -0.1221
      2  CA        -1.7640  -11.9830   12.9860 C.3    39  CYS39       0.1808
      3  C         -1.0280  -11.0960   11.9910 C.2    39  CYS39       0.2602
      4  O         -1.5780  -10.7360   10.9520 O.2    39  CYS39      -0.2717
      5  CB        -1.5570  -13.4410   12.5810 C.3    39  CYS39       0.0970
      6  SG        -2.3370  -14.6530   13.6520 S.3    39  CYS39      -0.0800
      7  N          0.2170  -10.7540   12.3100 N.am   40  GLY40      -0.1942
      8  CA         1.0020   -9.9220   11.4130 C.3    40  GLY40       0.2014
      9  C          0.3260   -8.5970   11.1200 C.2    40  GLY40       0.2640
     10  O         -0.0830   -7.8990   12.0400 O.2    40  GLY40      -0.2714
     11  N          0.2080   -8.2500    9.8420 N.am   41  SER41      -0.1935
     12  CA        -0.4370   -6.9960    9.4620 C.3    41  SER41       0.2055
     13  C         -1.8730   -6.9490    9.9680 C.2    41  SER41       0.2643
     14  O         -2.3820   -5.8790   10.3020 O.2    41  SER41      -0.2714
     15  CB        -0.4120   -6.8170    7.9430 C.3    41  SER41       0.2130
     16  OG         0.9080   -6.5600    7.4900 O.3    41  SER41      -0.2179
     17  N         -2.5270   -8.1060   10.0230 N.am   42  SER42      -0.1949
     18  CA        -3.8970   -8.1510   10.5150 C.3    42  SER42       0.1924
     19  C         -3.9370   -7.8560   12.0160 C.2    42  SER42       0.2314
     20  O         -4.9650   -7.4320   12.5340 O.2    42  SER42      -0.2863
     21  CB        -4.5380   -9.5060   10.2030 C.3    42  SER42       0.2116
     22  OG        -4.8810   -9.5760    8.8240 O.3    42  SER42      -0.2180
     23  N         -9.6840  -10.9590   12.2170 N.3    86  ILE86      -0.1231
     24  CA        -9.2070  -10.3260   10.9930 C.3    86  ILE86       0.1692
     25  C         -8.1800  -11.2040   10.2910 C.2    86  ILE86       0.2593
     26  O         -7.1550  -11.5590   10.8700 O.2    86  ILE86      -0.2718
     27  CB        -8.5550   -8.9500   11.2940 C.3    86  ILE86       0.0266
     28  CG1       -9.5350   -8.0720   12.0790 C.3    86  ILE86       0.0019
     29  CG2       -8.1440   -8.2680    9.9970 C.3    86  ILE86       0.0020
     30  CD1       -8.9940   -6.7040   12.4340 C.3    86  ILE86       0.0001
     31  N         -8.4750  -11.5570    9.0430 N.am   87  SER87      -0.1938
     32  CA        -7.5870  -12.3900    8.2400 C.3    87  SER87       0.2055
     33  C         -7.8590  -12.1630    6.7560 C.2    87  SER87       0.2643
     34  O         -8.9260  -12.5160    6.2440 O.2    87  SER87      -0.2714
     35  CB        -7.7870  -13.8690    8.5800 C.3    87  SER87       0.2130
     36  OG        -6.9260  -14.6890    7.8060 O.3    87  SER87      -0.2179
     37  N         -6.8910  -11.5610    6.0760 N.am   88  ARG88      -0.1963
     38  CA        -7.0100  -11.2820    4.6520 C.3    88  ARG88       0.1729
     39  C         -7.3480  -12.5560    3.8880 C.2    88  ARG88       0.2616
     40  O         -8.2490  -12.5680    3.0460 O.2    88  ARG88      -0.2715
     41  CB        -5.6970  -10.6880    4.1350 C.3    88  ARG88       0.0348
     42  CG        -5.6860  -10.3950    2.6480 C.3    88  ARG88       0.0492
     43  CD        -4.3720   -9.7620    2.2200 C.3    88  ARG88       0.2205
     44  NE        -3.2210  -10.5780    2.6030 N.pl3  88  ARG88      -0.0865
     45  CZ        -2.0770  -10.6180    1.9270 C.cat  88  ARG88       0.5346
     46  NH1       -1.9240   -9.8880    0.8300 N.pl3  88  ARG88       0.1354
     47  NH2       -1.0910  -11.4010    2.3380 N.pl3  88  ARG88       0.1354
     48  N         -6.6300  -13.6310    4.1940 N.am   89  SER89      -0.1950
     49  CA        -6.8430  -14.9140    3.5270 C.3    89  SER89       0.1924
     50  C         -8.0530  -15.6500    4.0800 C.2    89  SER89       0.2314
     51  O         -8.7500  -16.3590    3.3480 O.2    89  SER89      -0.2863
     52  CB        -5.6220  -15.8160    3.7110 C.3    89  SER89       0.2116
     53  OG        -5.4510  -16.1330    5.0850 O.3    89  SER89      -0.2180
     54  N         -5.6510  -18.4480    7.9000 N.3    92  THR92      -0.1218
     55  CA        -4.5890  -18.5400    8.8950 C.3    92  THR92       0.1862
     56  C         -5.0030  -19.4530   10.0470 C.2    92  THR92       0.2287
     57  O         -5.9780  -19.1910   10.7410 O.2    92  THR92      -0.2866
     58  CB        -4.2430  -17.1360    9.4020 C.3    92  THR92       0.1770
     59  OG1       -3.9010  -16.3250    8.2730 O.3    92  THR92      -0.2211
     60  CG2       -3.0670  -17.1730   10.3680 C.3    92  THR92       0.0375
     61  N          2.1600  -11.4160   -1.5050 N.3   133  VAL133     -0.1231
     62  CA         2.2400  -11.9710   -0.1620 C.3   133  VAL133      0.1692
     63  C          2.1020  -10.8120    0.8310 C.2   133  VAL133      0.2592
     64  O          1.6240  -10.9870    1.9550 O.2   133  VAL133     -0.2718
     65  CB         3.6000  -12.6820    0.0610 C.3   133  VAL133      0.0266
     66  CG1        3.8440  -12.9070    1.5450 C.3   133  VAL133      0.0020
     67  CG2        3.6120  -14.0130   -0.6750 C.3   133  VAL133      0.0020
     68  N          2.5080   -9.6210    0.4020 N.am  134  VAL134     -0.1966
     69  CA         2.4430   -8.4470    1.2630 C.3   134  VAL134      0.1727
     70  C          1.0970   -7.7340    1.1690 C.2   134  VAL134      0.2616
     71  O          0.6620   -7.3320    0.0890 O.2   134  VAL134     -0.2715
     72  CB         3.5800   -7.4510    0.9240 C.3   134  VAL134      0.0290
     73  CG1        3.5000   -6.2240    1.8320 C.3   134  VAL134      0.0023
     74  CG2        4.9240   -8.1390    1.0830 C.3   134  VAL134      0.0023
     75  N          0.4470   -7.5860    2.3190 N.am  135  MET135     -0.1977
     76  CA        -0.8460   -6.9160    2.4050 C.3   135  MET135      0.1605
     77  C         -0.6860   -5.4210    2.1450 C.2   135  MET135      0.2287
     78  O          0.1990   -4.7800    2.7140 O.2   135  MET135     -0.2864
     79  CB        -1.4370   -7.1400    3.8000 C.3   135  MET135      0.0413
     80  CG        -2.7130   -6.3690    4.0970 C.3   135  MET135      0.0598
     81  SD        -3.3060   -6.7360    5.7640 S.3   135  MET135     -0.1393
     82  CE        -5.0930   -6.7370    5.5140 C.3   135  MET135      0.0692
     83  N          9.1040   -6.8000    5.2300 N.3   211  GLU211     -0.1245
     84  CA         8.7120   -7.8640    4.3040 C.3   211  GLU211      0.1567
     85  C          9.1510   -7.6080    2.8650 C.2   211  GLU211      0.2260
     86  O          9.7560   -8.4710    2.2280 O.2   211  GLU211     -0.2867
     87  CB         7.1890   -8.0570    4.3230 C.3   211  GLU211      0.0388
     88  CG         6.6070   -8.3750    5.6930 C.3   211  GLU211      0.1160
     89  CD         5.1010   -8.5590    5.6580 C.2   211  GLU211      0.3649
     90  OE1        4.4210   -7.7670    4.9730 O.co2 211  GLU211     -0.2457
     91  OE2        4.5940   -9.4850    6.3270 O.co2 211  GLU211     -0.2457
     92  N          8.8590  -16.4330    3.2430 N.3   319  LEU319     -0.1231
     93  CA         7.4570  -16.2770    3.6120 C.3   319  LEU319      0.1693
     94  C          6.4190  -17.1110    2.8750 C.2   319  LEU319      0.2592
     95  O          6.5250  -17.3620    1.6770 O.2   319  LEU319     -0.2718
     96  CB         7.0490  -14.8040    3.5100 C.3   319  LEU319      0.0284
     97  CG         7.8770  -13.7980    4.3080 C.3   319  LEU319      0.0019
     98  CD1        7.2500  -12.4220    4.1680 C.3   319  LEU319      0.0001
     99  CD2        7.9340  -14.2100    5.7760 C.3   319  LEU319      0.0001
    100  N          5.4100  -17.5380    3.6250 N.am  320  ASP320     -0.1960
    101  CA         4.2950  -18.2850    3.0660 C.3   320  ASP320      0.1840
    102  C          3.1560  -17.2850    3.1240 C.2   320  ASP320      0.2622
    103  O          3.0180  -16.5590    4.1130 O.2   320  ASP320     -0.2715
    104  CB         3.9640  -19.5090    3.9190 C.3   320  ASP320      0.1450
    105  CG         4.9760  -20.6250    3.7510 C.2   320  ASP320      0.3671
    106  OD1        5.1330  -21.1200    2.6140 O.co2 320  ASP320     -0.2456
    107  OD2        5.6130  -21.0050    4.7540 O.co2 320  ASP320     -0.2456
    108  N          2.3540  -17.2280    2.0680 N.am  321  LYS321     -0.1963
    109  CA         1.2460  -16.2870    2.0280 C.3   321  LYS321      0.1728
    110  C          0.2980  -16.5170    3.1930 C.2   321  LYS321      0.2616
    111  O         -0.2610  -15.5720    3.7480 O.2   321  LYS321     -0.2715
    112  CB         0.4960  -16.4030    0.7020 C.3   321  LYS321      0.0311
    113  CG        -0.5190  -15.2960    0.4960 C.3   321  LYS321      0.0038
    114  CD        -0.9350  -15.1900   -0.9560 C.3   321  LYS321      0.0206
    115  CE        -1.8590  -14.0030   -1.1670 C.3   321  LYS321      0.1093
    116  NZ        -2.2700  -13.8810   -2.5890 N.3   321  LYS321     -0.1314
    117  N          0.1180  -17.7790    3.5640 N.am  322  VAL322     -0.1963
    118  CA        -0.7410  -18.1190    4.6860 C.3   322  VAL322      0.1727
    119  C          0.0520  -18.9800    5.6560 C.2   322  VAL322      0.2616
    120  O          0.6180  -20.0080    5.2730 O.2   322  VAL322     -0.2715
    121  CB        -2.0010  -18.8930    4.2320 C.3   322  VAL322      0.0290
    122  CG1       -2.8510  -19.2700    5.4430 C.3   322  VAL322      0.0023
    123  CG2       -2.8130  -18.0370    3.2740 C.3   322  VAL322      0.0023
    124  N          0.1120  -18.5390    6.9060 N.am  323  VAL323     -0.1977
    125  CA         0.8190  -19.2730    7.9450 C.3   323  VAL323      0.1596
    126  C         -0.1270  -20.3300    8.5000 C.2   323  VAL323      0.2287
    127  O         -1.2080  -20.0100    9.0030 O.2   323  VAL323     -0.2864
    128  CB         1.2570  -18.3270    9.0890 C.3   323  VAL323      0.0276
    129  CG1        1.9320  -19.1160   10.1950 C.3   323  VAL323      0.0022
    130  CG2        2.1910  -17.2550    8.5430 C.3   323  VAL323      0.0022
@<TRIPOS>BOND
     1   116   115    1
     2    61    62    1
     3   115   114    1
     4   114   113    1
     5    67    65    1
     6    62    65    1
     7    62    63    1
     8    65    66    1
     9    71    70    2
    10    68    63   am
    11    68    69    1
    12   113   112    1
    13   112   109    1
    14    46    45    1
    15    63    64    2
    16    72    74    1
    17    72    69    1
    18    72    73    1
    19    70    69    1
    20    70    75   am
    21    95    94    2
    22    45    47    1
    23    45    44    2
    24   109   108    1
    25   109   110    1
    26   108   102   am
    27    77    76    1
    28    77    78    2
    29    43    44    1
    30    43    42    1
    31    86    85    2
    32    75    76    1
    33    76    79    1
    34   106   105   ar
    35    42    41    1
    36    85    84    1
    37    94    93    1
    38    94   100   am
    39    40    39    2
    40   101   102    1
    41   101   100    1
    42   101   104    1
    43   102   103    2
    44   110   117   am
    45   110   111    2
    46    92    93    1
    47   123   121    1
    48    51    50    2
    49    96    93    1
    50    96    97    1
    51    49    52    1
    52    49    50    1
    53    49    48    1
    54   117   118    1
    55    52    53    1
    56   105   104    1
    57   105   107   ar
    58    79    80    1
    59    39    48   am
    60    39    38    1
    61    80    81    1
    62    41    38    1
    63    98    97    1
    64   121   118    1
    65   121   122    1
    66    84    87    1
    67    84    83    1
    68    97    99    1
    69    87    88    1
    70    38    37    1
    71   118   119    1
    72    90    89   ar
    73   120   119    2
    74    82    81    1
    75   119   124   am
    76    89    88    1
    77    89    91   ar
    78    37    33   am
    79    34    33    2
    80    33    32    1
    81   124   125    1
    82    16    15    1
    83    36    35    1
    84    54    55    1
    85    15    12    1
    86   125   126    1
    87   125   128    1
    88    32    35    1
    89    32    31    1
    90    59    58    1
    91   126   127    2
    92   130   128    1
    93    22    21    1
    94    55    58    1
    95    55    56    1
    96    31    25   am
    97   128   129    1
    98    58    60    1
    99    12    11    1
   100    12    13    1
   101    11     9   am
   102    13    17   am
   103    13    14    2
   104    29    27    1
   105    17    18    1
   106    56    57    2
   107    21    18    1
   108    25    26    2
   109    25    24    1
   110    18    19    1
   111     4     3    2
   112    24    27    1
   113    24    23    1
   114     9     8    1
   115     9    10    2
   116    27    28    1
   117     8     7    1
   118     3     7   am
   119     3     2    1
   120    19    20    2
   121    28    30    1
   122     5     2    1
   123     5     6    1
   124     2     1    1
