@<TRIPOS>MOLECULE
tmp/2dfvB00.pdb
 170 164 0 0 0
SMALL
GASTEIGER

@<TRIPOS>ATOM
      1  N         73.9690   27.5080  -40.4110 N.3    39  GLY39      -0.1225
      2  CA        75.2300   28.1850  -40.1040 C.3    39  GLY39       0.1811
      3  C         76.3010   27.8960  -41.1580 C.2    39  GLY39       0.2280
      4  O         77.1400   28.7510  -41.4510 O.2    39  GLY39      -0.2866
      5  N         78.5900   30.5490  -43.3230 N.3    43  HIS43      -0.1241
      6  CA        80.0470   30.4990  -43.4490 C.3    43  HIS43       0.1621
      7  C         80.5130   30.4820  -44.8950 C.2    43  HIS43       0.2264
      8  O         81.6020   30.9690  -45.1980 O.2    43  HIS43      -0.2867
      9  CB        80.6260   29.2950  -42.6900 C.3    43  HIS43       0.0745
     10  CG        80.4100   29.3690  -41.2060 C.ar   43  HIS43       0.0817
     11  ND1       80.0400   28.2720  -40.4510 N.ar   43  HIS43      -0.2268
     12  CD2       80.4720   30.4170  -40.3480 C.ar   43  HIS43       0.1154
     13  CE1       79.9190   28.6370  -39.1860 C.ar   43  HIS43       0.1986
     14  NE2       80.1740   29.9340  -39.0950 N.ar   43  HIS43      -0.2212
     15  N         73.8860   24.4540  -23.0340 N.3   169  THR169     -0.1203
     16  CA        74.6830   25.6590  -23.2430 C.3   169  THR169      0.1994
     17  C         74.5760   26.0380  -24.7460 C.2   169  THR169      0.2618
     18  O         74.8750   25.2130  -25.6320 O.2   169  THR169     -0.2717
     19  CB        76.1560   25.4100  -22.8320 C.3   169  THR169      0.1784
     20  OG1       76.6540   24.2170  -23.4870 O.3   169  THR169     -0.2211
     21  CG2       76.2880   25.2950  -21.2770 C.3   169  THR169      0.0376
     22  N         74.1210   27.2590  -25.0240 N.am  170  GLY170     -0.1956
     23  CA        73.9260   27.7260  -26.4160 C.3   170  GLY170      0.1869
     24  C         72.4430   27.6870  -26.7820 C.2   170  GLY170      0.2309
     25  O         71.7910   26.6140  -26.7860 O.2   170  GLY170     -0.2863
     26  N         71.4990   29.2650  -29.8670 N.3   172  GLY172     -0.1210
     27  CA        71.3880   29.5330  -31.2690 C.3   172  GLY172      0.1940
     28  C         70.3180   28.5830  -31.8070 C.2   172  GLY172      0.2454
     29  O         69.6750   27.8610  -31.0360 O.2   172  GLY172     -0.2732
     30  N         70.1120   28.5490  -33.1300 N.am  173  PRO173     -0.2717
     31  CA        69.0470   27.6870  -33.6440 C.3   173  PRO173      0.1535
     32  C         69.1150   26.2360  -33.1680 C.2   173  PRO173      0.2598
     33  O         68.0670   25.6280  -32.9210 O.2   173  PRO173     -0.2715
     34  CB        69.2640   27.7030  -35.1880 C.3   173  PRO173      0.0310
     35  CG        70.5610   28.4210  -35.4210 C.3   173  PRO173      0.0237
     36  CD        70.7900   29.3050  -34.2000 C.3   173  PRO173      0.0939
     37  N         70.3090   25.6580  -33.1250 N.am  174  LEU174     -0.1964
     38  CA        70.4270   24.2130  -32.7610 C.3   174  LEU174      0.1728
     39  C         70.0150   23.9800  -31.3010 C.2   174  LEU174      0.2616
     40  O         69.2830   23.0030  -30.9800 O.2   174  LEU174     -0.2715
     41  CB        71.8360   23.6560  -33.0750 C.3   174  LEU174      0.0311
     42  CG        72.0830   23.1020  -34.4870 C.3   174  LEU174      0.0022
     43  CD1       71.2910   21.8170  -34.7700 C.3   174  LEU174      0.0001
     44  CD2       71.6750   24.1430  -35.5200 C.3   174  LEU174      0.0001
     45  N         70.4760   24.8700  -30.4150 N.am  175  GLY175     -0.1955
     46  CA        70.1370   24.7890  -28.9970 C.3   175  GLY175      0.1869
     47  C         68.6710   25.0180  -28.7460 C.2   175  GLY175      0.2309
     48  O         68.0890   24.3690  -27.8840 O.2   175  GLY175     -0.2863
     49  N         71.8530   28.0710  -20.6840 N.3   193  SER193     -0.1202
     50  CA        72.8500   29.1460  -20.6040 C.3   193  SER193      0.2020
     51  C         73.1230   29.7810  -22.0040 C.2   193  SER193      0.2619
     52  O         73.5290   29.0920  -22.9670 O.2   193  SER193     -0.2717
     53  CB        74.1250   28.5740  -20.0060 C.3   193  SER193      0.2103
     54  OG        75.1380   29.5360  -19.9340 O.3   193  SER193     -0.2182
     55  N         72.9170   31.0900  -22.1210 N.am  194  GLU194     -0.1965
     56  CA        73.0630   31.8150  -23.3890 C.3   194  GLU194      0.1718
     57  C         73.3320   33.3170  -23.0940 C.2   194  GLU194      0.2458
     58  O         72.4660   33.9560  -22.5190 O.2   194  GLU194     -0.2730
     59  CB        71.7660   31.6900  -24.2060 C.3   194  GLU194      0.0428
     60  CG        71.6780   32.6730  -25.4180 C.3   194  GLU194      0.1163
     61  CD        72.8170   32.5200  -26.4150 C.2   194  GLU194      0.3649
     62  OE1       72.8900   31.4460  -27.0790 O.co2 194  GLU194     -0.2457
     63  OE2       73.6310   33.4770  -26.5740 O.co2 194  GLU194     -0.2457
     64  N         74.5070   33.8640  -23.4930 N.am  195  PRO195     -0.2716
     65  CA        74.8010   35.2610  -23.2020 C.3   195  PRO195      0.1536
     66  C         74.0030   36.2540  -24.0410 C.2   195  PRO195      0.2599
     67  O         73.7530   37.3600  -23.5720 O.2   195  PRO195     -0.2715
     68  CB        76.2880   35.3740  -23.5040 C.3   195  PRO195      0.0310
     69  CG        76.5180   34.4110  -24.6520 C.3   195  PRO195      0.0237
     70  CD        75.6270   33.2320  -24.2220 C.3   195  PRO195      0.0939
     71  N         73.5480   35.8850  -25.2360 N.am  196  SER196     -0.1950
     72  CA        72.7320   36.8310  -26.0000 C.3   196  SER196      0.1924
     73  C         71.3480   37.0620  -25.3910 C.2   196  SER196      0.2314
     74  O         70.6150   36.0960  -25.1760 O.2   196  SER196     -0.2863
     75  CB        72.5780   36.3830  -27.4450 C.3   196  SER196      0.2116
     76  OG        71.4120   36.9510  -28.0050 O.3   196  SER196     -0.2180
     77  N         68.4370   35.7760  -27.8030 N.3   199  ARG199     -0.1245
     78  CA        68.3770   34.3110  -27.8640 C.3   199  ARG199      0.1563
     79  C         68.0030   33.6650  -26.5360 C.2   199  ARG199      0.2260
     80  O         67.2800   32.6550  -26.5190 O.2   199  ARG199     -0.2867
     81  CB        69.6780   33.7330  -28.4020 C.3   199  ARG199      0.0307
     82  CG        69.6900   33.7420  -29.9150 C.3   199  ARG199      0.0489
     83  CD        71.0400   33.4630  -30.5070 C.3   199  ARG199      0.2205
     84  NE        70.9340   33.5210  -31.9650 N.pl3 199  ARG199     -0.0865
     85  CZ        71.8220   33.0260  -32.8200 C.cat 199  ARG199      0.5346
     86  NH1       72.9390   32.4260  -32.3780 N.pl3 199  ARG199      0.1354
     87  NH2       71.5700   33.1380  -34.1280 N.pl3 199  ARG199      0.1354
     88  N         75.6060   33.5970  -18.8640 N.3   214  PRO214     -0.2102
     89  CA        76.9000   33.1660  -18.3140 C.3   214  PRO214      0.1504
     90  C         77.9070   34.3160  -18.3130 C.2   214  PRO214      0.2575
     91  O         78.9760   34.1690  -17.7530 O.2   214  PRO214     -0.2718
     92  CB        77.3810   32.0870  -19.3270 C.3   214  PRO214      0.0282
     93  CG        76.7280   32.5730  -20.6730 C.3   214  PRO214      0.0208
     94  CD        75.3640   33.0570  -20.2340 C.3   214  PRO214      0.0893
     95  N         77.5720   35.4480  -18.9250 N.am  215  PHE215     -0.1977
     96  CA        78.4680   36.6100  -18.8240 C.3   215  PHE215      0.1639
     97  C         78.2040   37.4570  -17.5610 C.2   215  PHE215      0.2290
     98  O         79.0310   38.2880  -17.1920 O.2   215  PHE215     -0.2864
     99  CB        78.4330   37.4580  -20.1100 C.3   215  PHE215      0.0560
    100  CG        79.0240   36.7470  -21.3360 C.ar  215  PHE215     -0.0200
    101  CD1       79.6460   35.4770  -21.2270 C.ar  215  PHE215     -0.0042
    102  CD2       79.0040   37.3670  -22.6040 C.ar  215  PHE215     -0.0042
    103  CE1       80.1800   34.8070  -22.3600 C.ar  215  PHE215     -0.0003
    104  CE2       79.5720   36.7060  -23.7520 C.ar  215  PHE215     -0.0003
    105  CZ        80.1600   35.4290  -23.6070 C.ar  215  PHE215     -0.0000
    106  N         75.6120   22.8880  -27.0230 N.3   237  PHE237     -0.1227
    107  CA        75.1250   23.3680  -28.3120 C.3   237  PHE237      0.1736
    108  C         75.7370   24.7150  -28.7510 C.2   237  PHE237      0.2596
    109  O         75.1510   25.3360  -29.6340 O.2   237  PHE237     -0.2718
    110  CB        73.6260   23.6170  -28.2170 C.3   237  PHE237      0.0547
    111  CG        72.7460   22.3810  -28.3420 C.ar  237  PHE237     -0.0202
    112  CD1       72.4280   21.8590  -29.5900 C.ar  237  PHE237     -0.0042
    113  CD2       72.1750   21.8000  -27.2020 C.ar  237  PHE237     -0.0042
    114  CE1       71.5350   20.7610  -29.7140 C.ar  237  PHE237     -0.0003
    115  CE2       71.2860   20.7280  -27.3090 C.ar  237  PHE237     -0.0003
    116  CZ        70.9730   20.1760  -28.5690 C.ar  237  PHE237     -0.0000
    117  N         76.8230   25.1870  -28.1180 N.am  238  SER238     -0.1952
    118  CA        77.3730   26.5490  -28.3560 C.3   238  SER238      0.1924
    119  C         78.7130   26.5490  -29.0600 C.2   238  SER238      0.2314
    120  O         79.0400   27.5180  -29.7470 O.2   238  SER238     -0.2863
    121  CB        77.5310   27.3360  -27.0290 C.3   238  SER238      0.2116
    122  OG        78.6480   26.8710  -26.2800 O.3   238  SER238     -0.2180
    123  N         81.4240   26.9320  -27.4610 N.3   240  ALA240     -0.1245
    124  CA        82.2670   27.8030  -26.6420 C.3   240  ALA240      0.1562
    125  C         83.0530   26.9620  -25.6500 C.2   240  ALA240      0.2260
    126  O         82.4530   26.2230  -24.9080 O.2   240  ALA240     -0.2867
    127  CB        81.3560   28.8280  -25.9130 C.3   240  ALA240      0.0290
    128  N         84.4870   27.7040  -22.9010 N.3   242  LYS242     -0.1231
    129  CA        84.1330   27.9160  -21.4790 C.3   242  LYS242      0.1693
    130  C         82.8300   27.1890  -21.0750 C.2   242  LYS242      0.2591
    131  O         82.7040   26.7110  -19.9280 O.2   242  LYS242     -0.2718
    132  CB        84.0290   29.4150  -21.1460 C.3   242  LYS242      0.0285
    133  CG        83.8560   29.6890  -19.6630 C.3   242  LYS242      0.0035
    134  CD        85.1470   29.4160  -18.8560 C.3   242  LYS242      0.0206
    135  CE        85.0110   29.8400  -17.3920 C.3   242  LYS242      0.1093
    136  NZ        86.3220   29.5290  -16.6650 N.3   242  LYS242     -0.1314
    137  N         81.8570   27.1740  -21.9830 N.am  243  ALA243     -0.1980
    138  CA        80.6130   26.3770  -21.8080 C.3   243  ALA243      0.1597
    139  C         80.8860   24.8760  -21.6620 C.2   243  ALA243      0.2287
    140  O         80.2590   24.2160  -20.8250 O.2   243  ALA243     -0.2864
    141  CB        79.6420   26.6130  -22.9490 C.3   243  ALA243      0.0319
    142  N         82.1760   24.4680  -18.0340 N.3   246  GLN246     -0.1245
    143  CA        81.0660   24.6590  -17.1120 C.3   246  GLN246      0.1566
    144  C         80.1070   23.4630  -17.0770 C.2   246  GLN246      0.2260
    145  O         79.7270   23.0090  -16.0040 O.2   246  GLN246     -0.2867
    146  CB        80.2950   25.9190  -17.5010 C.3   246  GLN246      0.0367
    147  CG        81.1120   27.1720  -17.2730 C.3   246  GLN246      0.0905
    148  CD        80.3920   28.4470  -17.6810 C.2   246  GLN246      0.2608
    149  OE1       79.6810   28.4950  -18.6760 O.2   246  GLN246     -0.2717
    150  NE2       80.5920   29.5050  -16.8890 N.am  246  GLN246     -0.0878
    151  N         77.5390   18.4990  -29.3930 N.3   260  LEU260     -0.1231
    152  CA        77.2540   18.8590  -30.7700 C.3   260  LEU260      0.1693
    153  C         78.1090   20.0690  -31.2470 C.2   260  LEU260      0.2593
    154  O         78.6750   20.0720  -32.3610 O.2   260  LEU260     -0.2718
    155  CB        75.7500   19.1230  -30.9280 C.3   260  LEU260      0.0284
    156  CG        75.3710   19.3670  -32.3870 C.3   260  LEU260      0.0019
    157  CD1       75.4160   18.0530  -33.1640 C.3   260  LEU260      0.0001
    158  CD2       73.9930   20.0760  -32.5050 C.3   260  LEU260      0.0001
    159  N         78.2230   21.1000  -30.4050 N.am  261  GLY261     -0.1942
    160  CA        78.9250   22.3320  -30.8080 C.3   261  GLY261      0.2014
    161  C         80.4050   22.1320  -31.0990 C.2   261  GLY261      0.2638
    162  O         81.0750   21.2680  -30.5090 O.2   261  GLY261     -0.2714
    163  N         80.9240   22.9410  -32.0110 N.am  262  LEU262     -0.1977
    164  CA        82.2740   22.8090  -32.5040 C.3   262  LEU262      0.1596
    165  C         83.0390   24.0250  -32.0680 C.2   262  LEU262      0.2287
    166  O         82.5420   25.1510  -32.2330 O.2   262  LEU262     -0.2864
    167  CB        82.2500   22.7090  -34.0530 C.3   262  LEU262      0.0297
    168  CG        81.5970   21.4020  -34.5760 C.3   262  LEU262      0.0022
    169  CD1       81.1840   21.5130  -36.0550 C.3   262  LEU262      0.0001
    170  CD2       82.5580   20.1950  -34.3050 C.3   262  LEU262      0.0001
@<TRIPOS>BOND
     1     8     7    2
     2     7     6    1
     3     6     5    1
     4     6     9    1
     5     9    10    1
     6     4     3    2
     7    10    11   ar
     8    10    12   ar
     9     3     2    1
    10    11    13   ar
    11     1     2    1
    12    12    14   ar
    13    13    14   ar
    14   169   168    1
    15    44    42    1
    16    35    34    1
    17    35    36    1
    18    34    31    1
    19    43    42    1
    20   168   170    1
    21   168   167    1
    22    42    41    1
    23    36    30    1
    24    87    85    1
    25   167   164    1
    26    31    32    1
    27    31    30    1
    28    32    37   am
    29    32    33    2
    30   157   156    1
    31    30    28   am
    32    37    38    1
    33    41    38    1
    34    85    86    1
    35    85    84    2
    36    38    39    1
    37   158   156    1
    38   164   165    1
    39   164   163    1
    40   156   155    1
    41   154   153    2
    42   166   165    2
    43   163   161   am
    44    84    83    1
    45    28    27    1
    46    28    29    2
    47    39    40    2
    48    39    45   am
    49    27    26    1
    50   153   152    1
    51   153   159   am
    52   161   160    1
    53   161   162    2
    54   155   152    1
    55   160   159    1
    56   152   151    1
    57    83    82    1
    58    45    46    1
    59    82    81    1
    60   120   119    2
    61   114   112   ar
    62   114   116   ar
    63   109   108    2
    64   112   111   ar
    65   119   118    1
    66    46    47    1
    67   108   107    1
    68   108   117   am
    69    47    48    2
    70   116   115   ar
    71    81    78    1
    72   118   117    1
    73   118   121    1
    74   111   110    1
    75   111   113   ar
    76   107   110    1
    77   107   106    1
    78    76    75    1
    79    78    77    1
    80    78    79    1
    81   123   124    1
    82    75    72    1
    83   115   113   ar
    84    62    61   ar
    85   121   122    1
    86    25    24    2
    87    24    23    1
    88   124   127    1
    89   124   125    1
    90    63    61   ar
    91    79    80    2
    92    23    22    1
    93    61    60    1
    94    72    73    1
    95    72    71    1
    96   125   126    2
    97    18    17    2
    98    60    59    1
    99    73    74    2
   100    71    66   am
   101    22    17   am
   102    17    16    1
   103    69    70    1
   104    69    68    1
   105    70    64    1
   106    59    56    1
   107    66    67    2
   108    66    65    1
   109   104   105   ar
   110   104   102   ar
   111   105   103   ar
   112    68    65    1
   113    64    65    1
   114    64    57   am
   115    20    19    1
   116    56    57    1
   117    56    55    1
   118    16    15    1
   119    16    19    1
   120    57    58    2
   121    52    51    2
   122   141   138    1
   123   128   129    1
   124    19    21    1
   125   102   100   ar
   126   103   101   ar
   127    55    51   am
   128    51    50    1
   129   137   138    1
   130   137   130   am
   131   138   139    1
   132   139   140    2
   133   129   132    1
   134   129   130    1
   135   100   101   ar
   136   100    99    1
   137   132   133    1
   138   130   131    2
   139    49    50    1
   140    93    94    1
   141    93    92    1
   142    50    53    1
   143    94    88    1
   144    99    96    1
   145    53    54    1
   146   133   134    1
   147    92    89    1
   148    95    96    1
   149    95    90   am
   150    88    89    1
   151   134   135    1
   152    96    97    1
   153   149   148    2
   154    89    90    1
   155    90    91    2
   156   142   143    1
   157   148   147    1
   158   148   150   am
   159    97    98    2
   160   146   147    1
   161   146   143    1
   162   135   136    1
   163   143   144    1
   164   144   145    2
