@<TRIPOS>MOLECULE
tmp/2dg9A00.pdb
 152 148 0 0 0
SMALL
GASTEIGER

@<TRIPOS>ATOM
      1  N         -4.2930    0.5070   10.6580 N.3    26  TYR26      -0.1241
      2  CA        -3.0100    0.0680   11.1940 C.3    26  TYR26       0.1605
      3  C         -3.0280   -0.1730   12.7030 C.2    26  TYR26       0.2264
      4  O         -3.7890    0.4590   13.4440 O.2    26  TYR26      -0.2867
      5  CB        -1.8920    1.0530   10.8300 C.3    26  TYR26       0.0534
      6  CG        -1.8890    2.3250   11.6470 C.ar   26  TYR26      -0.0201
      7  CD1       -2.6090    3.4410   11.2280 C.ar   26  TYR26      -0.0009
      8  CD2       -1.1620    2.4130   12.8370 C.ar   26  TYR26      -0.0009
      9  CE1       -2.6150    4.6120   11.9730 C.ar   26  TYR26       0.0417
     10  CE2       -1.1640    3.5840   13.5940 C.ar   26  TYR26       0.0417
     11  CZ        -1.8920    4.6770   13.1510 C.ar   26  TYR26       0.1957
     12  OH        -1.9040    5.8420   13.8770 O.3    26  TYR26      -0.2866
     13  N          1.5860    0.6510   20.6260 N.3    36  PHE36      -0.1227
     14  CA         1.5310    2.0930   20.8940 C.3    36  PHE36       0.1736
     15  C          0.3680    2.8280   20.2220 C.2    36  PHE36       0.2595
     16  O          0.0030    3.9260   20.6480 O.2    36  PHE36      -0.2718
     17  CB         2.8720    2.7840   20.5990 C.3    36  PHE36       0.0547
     18  CG         3.4170    2.5150   19.2220 C.ar   36  PHE36      -0.0202
     19  CD1        2.9510    3.2240   18.1170 C.ar   36  PHE36      -0.0042
     20  CD2        4.4140    1.5630   19.0340 C.ar   36  PHE36      -0.0042
     21  CE1        3.4600    2.9740   16.8440 C.ar   36  PHE36      -0.0003
     22  CE2        4.9300    1.3110   17.7620 C.ar   36  PHE36      -0.0003
     23  CZ         4.4500    2.0150   16.6680 C.ar   36  PHE36      -0.0000
     24  N         -0.2150    2.2250   19.1870 N.am   37  ASP37      -0.1974
     25  CA        -1.3100    2.8630   18.4570 C.3    37  ASP37       0.1709
     26  C         -2.1170    1.8690   17.6290 C.2    37  ASP37       0.2293
     27  O         -1.5880    0.8560   17.1710 O.2    37  ASP37      -0.2864
     28  CB        -0.7630    3.9690   17.5470 C.3    37  ASP37       0.1436
     29  CG        -1.8140    5.0050   17.1720 C.2    37  ASP37       0.3671
     30  OD1       -1.4700    5.9350   16.4150 O.co2  37  ASP37      -0.2456
     31  OD2       -2.9740    4.9020   17.6280 O.co2  37  ASP37      -0.2456
     32  N        -10.2700    2.4880   17.4180 N.3    42  ARG42      -0.1245
     33  CA       -11.0470    3.7320   17.3960 C.3    42  ARG42       0.1563
     34  C        -11.9910    3.8120   16.1900 C.2    42  ARG42       0.2260
     35  O        -12.6820    4.8190   16.0000 O.2    42  ARG42      -0.2867
     36  CB       -10.1320    4.9640   17.4680 C.3    42  ARG42       0.0307
     37  CG        -9.0530    5.0400   16.3940 C.3    42  ARG42       0.0489
     38  CD        -8.3190    6.3710   16.4510 C.3    42  ARG42       0.2205
     39  NE        -7.1690    6.3960   15.5490 N.pl3  42  ARG42      -0.0865
     40  CZ        -5.9060    6.2090   15.9260 C.cat  42  ARG42       0.5346
     41  NH1       -5.6060    5.9890   17.2000 N.pl3  42  ARG42       0.1354
     42  NH2       -4.9350    6.2480   15.0210 N.pl3  42  ARG42       0.1354
     43  N         -6.9570    5.5650    8.7240 N.3    46  PHE46      -0.1227
     44  CA        -5.9070    6.5710    8.6280 C.3    46  PHE46       0.1736
     45  C         -5.6420    6.8990    7.1660 C.2    46  PHE46       0.2595
     46  O         -5.4750    5.9980    6.3380 O.2    46  PHE46      -0.2718
     47  CB        -4.6310    6.0570    9.3020 C.3    46  PHE46       0.0547
     48  CG        -3.4820    7.0290    9.2760 C.ar   46  PHE46      -0.0202
     49  CD1       -3.4110    8.0730   10.1970 C.ar   46  PHE46      -0.0042
     50  CD2       -2.4550    6.8870    8.3470 C.ar   46  PHE46      -0.0042
     51  CE1       -2.3420    8.9670   10.1790 C.ar   46  PHE46      -0.0003
     52  CE2       -1.3820    7.7730    8.3220 C.ar   46  PHE46      -0.0003
     53  CZ        -1.3250    8.8160    9.2410 C.ar   46  PHE46      -0.0000
     54  N         -5.6030    8.1900    6.8550 N.am   47  LYS47      -0.1980
     55  CA        -5.3860    8.6420    5.4850 C.3    47  LYS47       0.1596
     56  C         -4.0700    9.4000    5.3490 C.2    47  LYS47       0.2287
     57  O         -3.7510   10.2620    6.1750 O.2    47  LYS47      -0.2864
     58  CB        -6.5510    9.5170    5.0060 C.3    47  LYS47       0.0298
     59  CG        -7.9110    8.8300    5.0240 C.3    47  LYS47       0.0038
     60  CD        -8.9380    9.6260    4.2360 C.3    47  LYS47       0.0206
     61  CE       -10.3400    9.0710    4.4280 C.3    47  LYS47       0.1093
     62  NZ       -11.3330    9.7860    3.5790 N.3    47  LYS47      -0.1314
     63  N          6.2410   12.6950    1.8240 N.3    53  GLN53      -0.1231
     64  CA         7.0060   12.4900    3.0680 C.3    53  GLN53       0.1698
     65  C          6.1470   12.6610    4.3320 C.2    53  GLN53       0.2592
     66  O          6.6130   13.1910    5.3470 O.2    53  GLN53      -0.2718
     67  CB         8.2380   13.4100    3.1280 C.3    53  GLN53       0.0381
     68  CG         9.2460   13.2310    1.9910 C.3    53  GLN53       0.0905
     69  CD         8.8690   13.9920    0.7300 C.2    53  GLN53       0.2608
     70  OE1        8.9570   13.4610   -0.3770 O.2    53  GLN53      -0.2717
     71  NE2        8.4430   15.2400    0.8920 N.am   53  GLN53      -0.0878
     72  N          4.8930   12.2180    4.2600 N.am   54  GLU54      -0.1966
     73  CA         3.9460   12.4120    5.3590 C.3    54  GLU54       0.1733
     74  C          4.1620   11.4160    6.4940 C.2    54  GLU54       0.2616
     75  O          3.9440   11.7380    7.6630 O.2    54  GLU54      -0.2715
     76  CB         2.4970   12.3590    4.8570 C.3    54  GLU54       0.0429
     77  CG         1.4610   12.8350    5.8710 C.3    54  GLU54       0.1163
     78  CD         0.0370   12.7110    5.3670 C.2    54  GLU54       0.3649
     79  OE1       -0.1590   12.6710    4.1340 O.co2  54  GLU54      -0.2457
     80  OE2       -0.8870   12.6540    6.2070 O.co2  54  GLU54      -0.2457
     81  N          4.5870   10.2090    6.1390 N.am   55  VAL55      -0.1963
     82  CA         4.7610    9.1290    7.1130 C.3    55  VAL55       0.1727
     83  C          6.1840    8.5670    7.0760 C.2    55  VAL55       0.2616
     84  O          6.9400    8.8450    6.1420 O.2    55  VAL55      -0.2715
     85  CB         3.7270    7.9900    6.8980 C.3    55  VAL55       0.0290
     86  CG1        2.3060    8.5100    7.0870 C.3    55  VAL55       0.0023
     87  CG2        3.8940    7.3470    5.5180 C.3    55  VAL55       0.0023
     88  N          6.5470    7.7760    8.0870 N.am   56  ILE56      -0.1977
     89  CA         7.8770    7.1610    8.1300 C.3    56  ILE56       0.1596
     90  C          8.1380    6.3480    6.8590 C.2    56  ILE56       0.2287
     91  O          7.2120    5.7610    6.2910 O.2    56  ILE56      -0.2864
     92  CB         8.1140    6.3010    9.4130 C.3    56  ILE56       0.0276
     93  CG1        6.9550    5.3220    9.6570 C.3    56  ILE56       0.0022
     94  CG2        8.3320    7.2120   10.6230 C.3    56  ILE56       0.0022
     95  CD1        7.2340    4.2620   10.7320 C.3    56  ILE56       0.0001
     96  N          6.6810    2.7920    6.3870 N.3    59  LEU59      -0.1245
     97  CA         5.2440    2.7010    6.1330 C.3    59  LEU59       0.1561
     98  C          4.9130    3.1130    4.7030 C.2    59  LEU59       0.2260
     99  O          4.1340    2.4420    4.0260 O.2    59  LEU59      -0.2867
    100  CB         4.4300    3.5390    7.1260 C.3    59  LEU59       0.0270
    101  CG         2.9450    3.1580    7.1190 C.3    59  LEU59       0.0019
    102  CD1        2.6140    2.2390    8.2850 C.3    59  LEU59       0.0001
    103  CD2        2.0510    4.3860    7.1230 C.3    59  LEU59       0.0001
    104  N         12.1300    5.8720   13.1380 N.3    82  TYR82      -0.1241
    105  CA        12.4970    7.0890   13.8720 C.3    82  TYR82       0.1605
    106  C         13.9830    7.1840   14.2410 C.2    82  TYR82       0.2264
    107  O         14.4000    8.1120   14.9400 O.2    82  TYR82      -0.2867
    108  CB        11.5950    7.2680   15.1010 C.3    82  TYR82       0.0534
    109  CG        10.1390    7.4140   14.7330 C.ar   82  TYR82      -0.0201
    110  CD1        9.6290    8.6400   14.3020 C.ar   82  TYR82      -0.0009
    111  CD2        9.2780    6.3200   14.7840 C.ar   82  TYR82      -0.0009
    112  CE1        8.2890    8.7720   13.9490 C.ar   82  TYR82       0.0417
    113  CE2        7.9410    6.4430   14.4350 C.ar   82  TYR82       0.0417
    114  CZ         7.4550    7.6670   14.0170 C.ar   82  TYR82       0.1957
    115  OH         6.1320    7.7790   13.6690 O.3    82  TYR82      -0.2866
    116  N         10.9730    8.7260   18.6050 N.3    87  HIS87      -0.1241
    117  CA         9.8660    9.6750   18.6870 C.3    87  HIS87       0.1621
    118  C          9.6330   10.0240   20.1530 C.2    87  HIS87       0.2264
    119  O          9.2800    9.1470   20.9480 O.2    87  HIS87      -0.2867
    120  CB         8.5870    9.1170   18.0520 C.3    87  HIS87       0.0745
    121  CG         7.4420   10.0820   18.0660 C.ar   87  HIS87       0.0817
    122  ND1        7.3610   11.1510   17.1990 N.ar   87  HIS87      -0.2268
    123  CD2        6.3420   10.1510   18.8530 C.ar   87  HIS87       0.1154
    124  CE1        6.2570   11.8330   17.4470 C.ar   87  HIS87       0.1986
    125  NE2        5.6210   11.2490   18.4470 N.ar   87  HIS87      -0.2212
    126  N          7.3360    8.2140   23.1240 N.3    90  ILE90      -0.1231
    127  CA         6.6400    7.0050   22.6600 C.3    90  ILE90       0.1692
    128  C          7.5750    5.9410   22.0600 C.2    90  ILE90       0.2591
    129  O          7.5210    4.7690   22.4540 O.2    90  ILE90      -0.2718
    130  CB         5.4890    7.3420   21.6570 C.3    90  ILE90       0.0266
    131  CG1        4.5380    8.3980   22.2420 C.3    90  ILE90       0.0019
    132  CG2        4.7260    6.0730   21.2610 C.3    90  ILE90       0.0020
    133  CD1        3.3980    8.8030   21.3180 C.3    90  ILE90       0.0001
    134  N          8.4170    6.3480   21.1120 N.am   91  ILE91      -0.1980
    135  CA         9.3170    5.4230   20.4170 C.3    91  ILE91       0.1595
    136  C         10.7690    5.6660   20.8260 C.2    91  ILE91       0.2287
    137  O         11.3050    6.7500   20.5850 O.2    91  ILE91      -0.2864
    138  CB         9.1890    5.5260   18.8660 C.3    91  ILE91       0.0276
    139  CG1        7.7250    5.4050   18.4090 C.3    91  ILE91       0.0022
    140  CG2       10.0970    4.5020   18.1690 C.3    91  ILE91       0.0022
    141  CD1        7.0390    4.0820   18.7660 C.3    91  ILE91       0.0001
    142  N          4.1680   -2.8350   12.1500 N.3    99  PHE99      -0.1241
    143  CA         2.8450   -2.3400   11.8020 C.3    99  PHE99       0.1605
    144  C          2.0430   -3.4170   11.0780 C.2    99  PHE99       0.2264
    145  O          2.5230   -4.0120   10.1120 O.2    99  PHE99      -0.2867
    146  CB         2.9400   -1.0870   10.9220 C.3    99  PHE99       0.0534
    147  CG         3.3170    0.1630   11.6690 C.ar   99  PHE99      -0.0203
    148  CD1        4.6500    0.4480   11.9450 C.ar   99  PHE99      -0.0042
    149  CD2        2.3380    1.0650   12.0800 C.ar   99  PHE99      -0.0042
    150  CE1        5.0080    1.6110   12.6310 C.ar   99  PHE99      -0.0003
    151  CE2        2.6850    2.2320   12.7710 C.ar   99  PHE99      -0.0003
    152  CZ         4.0200    2.5010   13.0440 C.ar   99  PHE99      -0.0000
@<TRIPOS>BOND
     1    70    69    2
     2    69    71   am
     3    69    68    1
     4    63    64    1
     5    68    67    1
     6    64    67    1
     7    64    65    1
     8    62    61    1
     9    99    98    2
    10    79    78   ar
    11    60    61    1
    12    60    59    1
    13    72    65   am
    14    72    73    1
    15    65    66    2
    16    98    97    1
    17    76    73    1
    18    76    77    1
    19    58    59    1
    20    58    55    1
    21    56    55    1
    22    56    57    2
    23    73    74    1
    24    78    77    1
    25    78    80   ar
    26    55    54    1
    27    87    85    1
    28    97    96    1
    29    97   100    1
    30    81    74   am
    31    81    82    1
    32    84    83    2
    33    91    90    2
    34    46    45    2
    35    74    75    2
    36    54    45   am
    37    90    89    1
    38    85    86    1
    39    85    82    1
    40    83    82    1
    41    83    88   am
    42   101   103    1
    43   101   100    1
    44   101   102    1
    45    45    44    1
    46    88    89    1
    47    89    92    1
    48    52    50   ar
    49    52    53   ar
    50    50    48   ar
    51    44    43    1
    52    44    47    1
    53    53    51   ar
    54    48    47    1
    55    48    49   ar
    56    92    93    1
    57    92    94    1
    58    93    95    1
    59   145   144    2
    60    51    49   ar
    61     1     2    1
    62     5     2    1
    63     5     6    1
    64   146   147    1
    65   146   143    1
    66   144   143    1
    67     2     3    1
    68     7     6   ar
    69     7     9   ar
    70     6     8   ar
    71   147   148   ar
    72   147   149   ar
    73   143   142    1
    74   148   150   ar
    75     9    11   ar
    76   149   151   ar
    77   150   152   ar
    78     3     4    2
    79   151   152   ar
    80     8    10   ar
    81   104   105    1
    82    11    10   ar
    83    11    12    1
    84   115   114    1
    85   105   106    1
    86   105   108    1
    87   112   114   ar
    88   112   110   ar
    89   114   113   ar
    90   106   107    2
    91   110   109   ar
    92   113   111   ar
    93   109   111   ar
    94   109   108    1
    95    42    40    1
    96    39    40    2
    97    39    38    1
    98    40    41    1
    99    35    34    2
   100    34    33    1
   101    37    38    1
   102    37    36    1
   103    30    29   ar
   104    23    21   ar
   105    23    22   ar
   106    21    19   ar
   107    27    26    2
   108    29    28    1
   109    29    31   ar
   110   122   124   ar
   111   122   121   ar
   112    33    32    1
   113    33    36    1
   114   124   125   ar
   115    28    25    1
   116    26    25    1
   117    22    20   ar
   118   120   121    1
   119   120   117    1
   120   121   123   ar
   121    19    18   ar
   122   140   138    1
   123   139   141    1
   124   139   138    1
   125   125   123   ar
   126    25    24    1
   127   116   117    1
   128   117   118    1
   129   138   135    1
   130    20    18   ar
   131    24    15   am
   132    18    17    1
   133   118   119    2
   134    15    16    2
   135    15    14    1
   136   135   136    1
   137   135   134    1
   138   137   136    2
   139    17    14    1
   140    13    14    1
   141   134   128   am
   142   132   130    1
   143   133   131    1
   144   130   131    1
   145   130   127    1
   146   128   129    2
   147   128   127    1
   148   127   126    1
