@<TRIPOS>MOLECULE
tmp/2dgeC00.pdb
 213 201 0 0 0
SMALL
GASTEIGER

@<TRIPOS>ATOM
      1  N         22.2650  -10.8110   13.0950 N.3    12  PHE12      -0.1241
      2  CA        22.1430  -11.8170   14.1320 C.3    12  PHE12       0.1605
      3  C         23.1390  -12.9380   13.8780 C.2    12  PHE12       0.2264
      4  O         23.8100  -13.3900   14.8030 O.2    12  PHE12      -0.2867
      5  CB        20.7020  -12.3450   14.1830 C.3    12  PHE12       0.0534
      6  CG        20.4200  -13.2350   15.3510 C.ar   12  PHE12      -0.0203
      7  CD1       20.0300  -12.6880   16.5680 C.ar   12  PHE12      -0.0042
      8  CD2       20.5240  -14.6160   15.2340 C.ar   12  PHE12      -0.0042
      9  CE1       19.7680  -13.5040   17.6590 C.ar   12  PHE12      -0.0003
     10  CE2       20.2610  -15.4480   16.3390 C.ar   12  PHE12      -0.0003
     11  CZ        19.8820  -14.8810   17.5460 C.ar   12  PHE12      -0.0000
     12  N         26.6390  -11.5780   14.8280 N.3    15  ALA15      -0.1231
     13  CA        26.9730  -11.1220   16.1820 C.3    15  ALA15       0.1694
     14  C         26.3930  -11.9430   17.3280 C.2    15  ALA15       0.2592
     15  O         26.8910  -11.8450   18.4530 O.2    15  ALA15      -0.2718
     16  CB        26.5890   -9.6330   16.3600 C.3    15  ALA15       0.0304
     17  N         25.3710  -12.7520   17.0590 N.am   16  CYS16      -0.1970
     18  CA        24.5680  -13.3210   18.1560 C.3    16  CYS16       0.1712
     19  C         24.5240  -14.8250   18.2260 C.2    16  CYS16       0.2296
     20  O         24.2240  -15.3800   19.2790 O.2    16  CYS16      -0.2864
     21  CB        23.1290  -12.7690   18.1370 C.3    16  CYS16       0.0983
     22  SG        22.9910  -10.9770   17.9080 S.3    16  CYS16      -0.0798
     23  N         26.7020  -17.1480   18.1890 N.3    18  GLY18      -0.1210
     24  CA        27.6770  -17.7850   19.0580 C.3    18  GLY18       0.1956
     25  C         27.0510  -18.2240   20.3690 C.2    18  GLY18       0.2612
     26  O         27.4140  -19.2570   20.9180 O.2    18  GLY18      -0.2717
     27  N         26.0850  -17.4570   20.8610 N.am   19  CYS19      -0.1956
     28  CA        25.4520  -17.7820   22.1350 C.3    19  CYS19       0.1843
     29  C         23.9550  -18.0770   22.0420 C.2    19  CYS19       0.2625
     30  O         23.4090  -18.7330   22.9220 O.2    19  CYS19      -0.2714
     31  CB        25.6990  -16.6500   23.1440 C.3    19  CYS19       0.0997
     32  SG        27.4560  -16.3610   23.4650 S.3    19  CYS19      -0.0797
     33  N         23.3110  -17.6010   20.9760 N.am   20  HIS20      -0.1973
     34  CA        21.8610  -17.6570   20.8510 C.3    20  HIS20       0.1656
     35  C         21.3990  -18.3610   19.5630 C.2    20  HIS20       0.2291
     36  O         20.3270  -18.0620   19.0320 O.2    20  HIS20      -0.2864
     37  CB        21.2530  -16.2320   20.8880 C.3    20  HIS20       0.0771
     38  CG        21.4670  -15.4680   22.1740 C.ar   20  HIS20       0.0820
     39  ND1       20.9330  -15.8600   23.3860 N.ar   20  HIS20      -0.2267
     40  CD2       22.0810  -14.2750   22.4080 C.ar   20  HIS20       0.1154
     41  CE1       21.2520  -14.9630   24.3150 C.ar   20  HIS20       0.1986
     42  NE2       21.9390  -13.9820   23.7490 N.ar   20  HIS20      -0.2212
     43  N         20.0400  -20.2230   24.4940 N.3    25  ASN25      -0.1240
     44  CA        21.0570  -19.5330   25.2880 C.3    25  ASN25       0.1653
     45  C         21.9780  -20.5810   25.8850 C.2    25  ASN25       0.2266
     46  O         21.5950  -21.2680   26.8350 O.2    25  ASN25      -0.2867
     47  CB        20.4370  -18.6830   26.4160 C.3    25  ASN25       0.1155
     48  CG        21.4650  -17.7880   27.1020 C.2    25  ASN25       0.2627
     49  OD1       22.6220  -18.1710   27.2670 O.2    25  ASN25      -0.2716
     50  ND2       21.0480  -16.5860   27.4870 N.am   25  ASN25      -0.0877
     51  N         24.6700  -20.3690   27.6180 N.3    27  ILE27      -0.1231
     52  CA        25.3030  -20.0280   28.8990 C.3    27  ILE27       0.1692
     53  C         24.3200  -20.0550   30.0650 C.2    27  ILE27       0.2591
     54  O         24.6300  -20.5990   31.1350 O.2    27  ILE27      -0.2718
     55  CB        25.9910  -18.6460   28.8110 C.3    27  ILE27       0.0266
     56  CG1       27.2290  -18.7250   27.9090 C.3    27  ILE27       0.0019
     57  CG2       26.3850  -18.1130   30.2160 C.3    27  ILE27       0.0020
     58  CD1       27.6100  -17.3860   27.2890 C.3    27  ILE27       0.0001
     59  N         23.1570  -19.4370   29.8740 N.am   28  GLN28      -0.1979
     60  CA        22.2010  -19.2460   30.9540 C.3    28  GLN28       0.1601
     61  C         20.8630  -19.9290   30.6750 C.2    28  GLN28       0.2287
     62  O         20.0570  -19.4120   29.8860 O.2    28  GLN28      -0.2864
     63  CB        22.0080  -17.7470   31.2080 C.3    28  GLN28       0.0394
     64  CG        21.0480  -17.3960   32.3530 C.3    28  GLN28       0.0908
     65  CD        21.5280  -17.8900   33.7070 C.2    28  GLN28       0.2608
     66  OE1       22.7210  -17.8300   34.0200 O.2    28  GLN28      -0.2717
     67  NE2       20.5980  -18.3590   34.5180 N.am   28  GLN28      -0.0878
     68  N         17.1260  -18.2610   30.0750 N.3    31  ALA31      -0.1231
     69  CA        17.2920  -16.9350   29.4840 C.3    31  ALA31       0.1694
     70  C         17.4350  -16.9870   27.9580 C.2    31  ALA31       0.2593
     71  O         18.2340  -16.2480   27.3740 O.2    31  ALA31      -0.2718
     72  CB        18.4700  -16.1770   30.1320 C.3    31  ALA31       0.0304
     73  N         16.6560  -17.8590   27.3220 N.am   32  THR32      -0.1939
     74  CA        16.6360  -17.9350   25.8500 C.3    32  THR32       0.2028
     75  C         15.9230  -16.7130   25.2710 C.2    32  THR32       0.2642
     76  O         15.4390  -15.8300   25.9900 O.2    32  THR32      -0.2714
     77  CB        15.9350  -19.2220   25.3340 C.3    32  THR32       0.1808
     78  OG1       14.5230  -19.1410   25.6130 O.3    32  THR32      -0.2208
     79  CG2       16.4330  -20.4660   26.0650 C.3    32  THR32       0.0379
     80  N         15.8650  -16.6560   23.9500 N.am   33  LEU33      -0.1977
     81  CA        15.1770  -15.5560   23.2840 C.3    33  LEU33       0.1596
     82  C         13.7350  -15.8990   22.9350 C.2    33  LEU33       0.2287
     83  O         13.1040  -15.1970   22.1490 O.2    33  LEU33      -0.2864
     84  CB        15.9680  -15.1200   22.0310 C.3    33  LEU33       0.0297
     85  CG        17.4710  -14.8760   22.2340 C.3    33  LEU33       0.0022
     86  CD1       18.0890  -14.3100   20.9690 C.3    33  LEU33       0.0001
     87  CD2       17.7180  -13.9340   23.4090 C.3    33  LEU33       0.0001
     88  N         10.7720  -17.0390   28.3200 N.3    37  ASP37      -0.1225
     89  CA        11.9850  -16.5890   29.0120 C.3    37  ASP37       0.1805
     90  C         12.1500  -15.0780   29.0300 C.2    37  ASP37       0.2597
     91  O         12.5020  -14.5120   30.0670 O.2    37  ASP37      -0.2718
     92  CB        13.2290  -17.2480   28.4100 C.3    37  ASP37       0.1424
     93  CG        13.3280  -18.7070   28.7720 C.2    37  ASP37       0.3668
     94  OD1       14.1870  -19.4080   28.2020 O.co2  37  ASP37      -0.2456
     95  OD2       12.5910  -19.2360   29.6420 O.co2  37  ASP37      -0.2456
     96  N         11.9330  -14.4240   27.8880 N.am   38  LEU38      -0.1979
     97  CA        11.9890  -12.9630   27.8260 C.3    38  LEU38       0.1596
     98  C         11.0580  -12.3360   28.8670 C.2    38  LEU38       0.2287
     99  O         11.4420  -11.3850   29.5630 O.2    38  LEU38      -0.2864
    100  CB        11.6280  -12.4670   26.4210 C.3    38  LEU38       0.0297
    101  CG        12.5880  -12.8080   25.2820 C.3    38  LEU38       0.0022
    102  CD1       11.9430  -12.3950   23.9600 C.3    38  LEU38       0.0001
    103  CD2       13.9080  -12.0980   25.4770 C.3    38  LEU38       0.0001
    104  N         12.2630  -12.8390   32.6080 N.3    41  ASN41      -0.1240
    105  CA        13.4540  -12.0660   32.9260 C.3    41  ASN41       0.1653
    106  C         13.2530  -10.5570   32.7970 C.2    41  ASN41       0.2266
    107  O         14.1840   -9.7710   33.0290 O.2    41  ASN41      -0.2867
    108  CB        14.5950  -12.5180   32.0140 C.3    41  ASN41       0.1155
    109  CG        15.0970  -13.9130   32.3400 C.2    41  ASN41       0.2627
    110  OD1       14.9820  -14.8450   31.5330 O.2    41  ASN41      -0.2716
    111  ND2       15.6860  -14.0630   33.5170 N.am   41  ASN41      -0.0877
    112  N         12.6430   -8.8780   29.9830 N.3    43  VAL43      -0.1245
    113  CA        13.1720   -8.3700   28.7190 C.3    43  VAL43       0.1561
    114  C         12.2010   -8.6890   27.5790 C.2    43  VAL43       0.2260
    115  O         12.6090   -9.1660   26.5220 O.2    43  VAL43      -0.2867
    116  CB        14.5610   -8.9950   28.3890 C.3    43  VAL43       0.0252
    117  CG1       15.2570   -8.2150   27.2960 C.3    43  VAL43       0.0019
    118  CG2       15.4400   -9.0420   29.6230 C.3    43  VAL43       0.0019
    119  N         14.8930   -5.1280   25.0160 N.3    49  ILE49      -0.1245
    120  CA        15.7950   -5.9400   24.1880 C.3    49  ILE49       0.1561
    121  C         16.9040   -5.0560   23.6170 C.2    49  ILE49       0.2260
    122  O         18.0750   -5.4410   23.6130 O.2    49  ILE49      -0.2867
    123  CB        15.0130   -6.6690   23.0590 C.3    49  ILE49       0.0252
    124  CG1       14.0880   -7.7290   23.6440 C.3    49  ILE49       0.0019
    125  CG2       15.9630   -7.3250   22.0610 C.3    49  ILE49       0.0019
    126  CD1       12.9570   -8.1700   22.6840 C.3    49  ILE49       0.0001
    127  N         19.3680   -4.2640   26.5380 N.3    52  VAL52      -0.1231
    128  CA        20.1990   -5.4370   26.8210 C.3    52  VAL52       0.1692
    129  C         21.2720   -5.6190   25.7420 C.2    52  VAL52       0.2592
    130  O         22.4260   -5.9010   26.0430 O.2    52  VAL52      -0.2718
    131  CB        19.3280   -6.6980   26.9850 C.3    52  VAL52       0.0266
    132  CG1       20.1730   -7.9870   26.9580 C.3    52  VAL52       0.0020
    133  CG2       18.5270   -6.6160   28.2800 C.3    52  VAL52       0.0020
    134  N         20.8830   -5.4580   24.4800 N.am   53  THR53      -0.1953
    135  CA        21.8210   -5.5890   23.3840 C.3    53  THR53       0.1897
    136  C         22.8830   -4.4970   23.3980 C.2    53  THR53       0.2313
    137  O         24.0550   -4.7610   23.1000 O.2    53  THR53      -0.2863
    138  CB        21.0500   -5.6030   22.0600 C.3    53  THR53       0.1794
    139  OG1       20.1060   -6.6800   22.0970 O.3    53  THR53      -0.2208
    140  CG2       21.9940   -5.9690   20.8790 C.3    53  THR53       0.0378
    141  N         24.0220   -7.4870   29.7900 N.3    57  LYS57      -0.1231
    142  CA        23.2640   -7.9050   30.9590 C.3    57  LYS57       0.1693
    143  C         23.9320   -9.1440   31.5050 C.2    57  LYS57       0.2593
    144  O         24.0940  -10.1360   30.7880 O.2    57  LYS57      -0.2718
    145  CB        21.8000   -8.1940   30.6140 C.3    57  LYS57       0.0285
    146  CG        20.9500   -8.6710   31.8050 C.3    57  LYS57       0.0035
    147  CD        19.4630   -8.7120   31.4530 C.3    57  LYS57       0.0206
    148  CE        18.5660   -8.9520   32.6830 C.3    57  LYS57       0.1093
    149  NZ        18.5030  -10.3940   33.0930 N.3    57  LYS57      -0.1314
    150  N         24.3180   -9.1010   32.7750 N.am   58  GLY58      -0.1942
    151  CA        25.0120  -10.2300   33.3670 C.3    58  GLY58       0.2014
    152  C         26.2580  -10.5710   32.5830 C.2    58  GLY58       0.2639
    153  O         27.1240   -9.7160   32.3580 O.2    58  GLY58      -0.2714
    154  N         26.3470  -11.8210   32.1300 N.am   59  ARG59      -0.1963
    155  CA        27.5120  -12.2630   31.3740 C.3    59  ARG59       0.1729
    156  C         27.4260  -11.9320   29.8900 C.2    59  ARG59       0.2616
    157  O         28.3920  -12.1220   29.1500 O.2    59  ARG59      -0.2715
    158  CB        27.7960  -13.7560   31.6140 C.3    59  ARG59       0.0348
    159  CG        28.2110  -14.0220   33.0500 C.3    59  ARG59       0.0492
    160  CD        28.7170  -15.4360   33.3590 C.3    59  ARG59       0.2205
    161  NE        29.0000  -15.5710   34.7930 N.pl3  59  ARG59      -0.0865
    162  CZ        30.1640  -15.2930   35.3830 C.cat  59  ARG59       0.5346
    163  NH1       31.2020  -14.8680   34.6770 N.pl3  59  ARG59       0.1354
    164  NH2       30.2910  -15.4440   36.7000 N.pl3  59  ARG59       0.1354
    165  N         26.2860  -11.4160   29.4440 N.am   60  MET60      -0.1964
    166  CA        26.2350  -10.9730   28.0580 C.3    60  MET60       0.1722
    167  C         26.9270   -9.6390   27.8370 C.2    60  MET60       0.2458
    168  O         26.5980   -8.6500   28.5150 O.2    60  MET60      -0.2730
    169  CB        24.8130  -10.8620   27.5600 C.3    60  MET60       0.0427
    170  CG        24.7770  -10.3680   26.1380 C.3    60  MET60       0.0599
    171  SD        23.1280  -10.3220   25.5420 S.3    60  MET60      -0.1393
    172  CE        23.2180   -8.9760   24.3520 C.3    60  MET60       0.0692
    173  N         27.8430   -9.5900   26.8700 N.am   61  PRO61      -0.2727
    174  CA        28.4670   -8.3330   26.4600 C.3    61  PRO61       0.1402
    175  C         27.4780   -7.3770   25.8040 C.2    61  PRO61       0.2269
    176  O         26.5680   -7.7960   25.0930 O.2    61  PRO61      -0.2865
    177  CB        29.5000   -8.7820   25.4250 C.3    61  PRO61       0.0296
    178  CG        28.9350  -10.0560   24.8860 C.3    61  PRO61       0.0237
    179  CD        28.3600  -10.7310   26.0870 C.3    61  PRO61       0.0939
    180  N         26.9260   -4.3020   23.0430 N.3    63  PHE63      -0.1241
    181  CA        27.4380   -4.0770   21.6990 C.3    63  PHE63       0.1605
    182  C         27.4040   -2.6060   21.2920 C.2    63  PHE63       0.2264
    183  O         27.9090   -2.2430   20.2310 O.2    63  PHE63      -0.2867
    184  CB        26.6360   -4.9050   20.6920 C.3    63  PHE63       0.0534
    185  CG        26.9090   -6.3770   20.7720 C.ar   63  PHE63      -0.0203
    186  CD1       26.2340   -7.1640   21.7010 C.ar   63  PHE63      -0.0042
    187  CD2       27.8410   -6.9660   19.9270 C.ar   63  PHE63      -0.0042
    188  CE1       26.4850   -8.5320   21.7890 C.ar   63  PHE63      -0.0003
    189  CE2       28.1010   -8.3280   19.9960 C.ar   63  PHE63      -0.0003
    190  CZ        27.4190   -9.1210   20.9290 C.ar   63  PHE63      -0.0000
    191  N         28.4980   -2.2230   17.4780 N.3    79  LEU79      -0.1245
    192  CA        27.4360   -2.0940   16.4960 C.3    79  LEU79       0.1561
    193  C         26.8780   -0.6860   16.5340 C.2    79  LEU79       0.2260
    194  O         26.9180   -0.0240   17.5700 O.2    79  LEU79      -0.2867
    195  CB        26.3280   -3.1150   16.7590 C.3    79  LEU79       0.0270
    196  CG        26.8030   -4.5740   16.7300 C.3    79  LEU79       0.0019
    197  CD1       25.6780   -5.5130   17.1330 C.3    79  LEU79       0.0001
    198  CD2       27.3740   -4.9440   15.3630 C.3    79  LEU79       0.0001
    199  N         18.3450   -5.4070   15.3540 N.3    87  LEU87      -0.1245
    200  CA        18.4920   -6.6420   16.1230 C.3    87  LEU87       0.1561
    201  C         17.3820   -6.7890   17.1630 C.2    87  LEU87       0.2260
    202  O         16.8440   -7.8840   17.3510 O.2    87  LEU87      -0.2867
    203  CB        19.8820   -6.7040   16.7750 C.3    87  LEU87       0.0270
    204  CG        20.9910   -7.1250   15.8090 C.3    87  LEU87       0.0019
    205  CD1       22.3690   -6.6130   16.2830 C.3    87  LEU87       0.0001
    206  CD2       20.9910   -8.6510   15.5680 C.3    87  LEU87       0.0001
    207  N         14.7580   -9.8510   17.1630 N.3    91  VAL91      -0.1245
    208  CA        14.4930  -10.7330   18.2940 C.3    91  VAL91       0.1561
    209  C         13.0120  -10.7110   18.6800 C.2    91  VAL91       0.2260
    210  O         12.4180  -11.7600   18.9460 O.2    91  VAL91      -0.2867
    211  CB        15.3920  -10.3970   19.4870 C.3    91  VAL91       0.0252
    212  CG1       14.9300  -11.1270   20.7600 C.3    91  VAL91       0.0019
    213  CG2       16.8540  -10.7340   19.1560 C.3    91  VAL91       0.0019
@<TRIPOS>BOND
     1     1     2    1
     2     3     2    1
     3     3     4    2
     4     2     5    1
     5     5     6    1
     6    12    13    1
     7     8     6   ar
     8     8    10   ar
     9     6     7   ar
    10   199   200    1
    11   198   196    1
    12   206   204    1
    13   204   205    1
    14   204   203    1
    15   200   203    1
    16   200   201    1
    17    13    16    1
    18    13    14    1
    19    10    11   ar
    20   192   193    1
    21   192   195    1
    22   192   191    1
    23   193   194    2
    24     7     9   ar
    25   196   195    1
    26   196   197    1
    27    17    14   am
    28    17    18    1
    29   201   202    2
    30   207   208    1
    31    14    15    2
    32    11     9   ar
    33    22    21    1
    34    21    18    1
    35    18    19    1
    36    23    24    1
    37    19    20    2
    38   208   209    1
    39   208   211    1
    40   209   210    2
    41    36    35    2
    42    24    25    1
    43   213   211    1
    44   211   212    1
    45    35    34    1
    46   187   189   ar
    47   187   185   ar
    48   189   190   ar
    49   183   182    2
    50    25    27   am
    51    25    26    2
    52   184   185    1
    53   184   181    1
    54   185   186   ar
    55    34    37    1
    56    34    33    1
    57    27    28    1
    58   140   138    1
    59    37    38    1
    60   190   188   ar
    61    86    85    1
    62    33    29   am
    63   182   181    1
    64   181   180    1
    65   186   188   ar
    66    84    85    1
    67    84    81    1
    68    29    28    1
    69    29    30    2
    70   138   139    1
    71   138   135    1
    72   125   123    1
    73    28    31    1
    74    83    82    2
    75    38    40   ar
    76    38    39   ar
    77    85    87    1
    78    40    42   ar
    79   126   124    1
    80    82    81    1
    81   123   124    1
    82   123   120    1
    83   137   136    2
    84    31    32    1
    85    81    80    1
    86   135   136    1
    87   135   134    1
    88    39    41   ar
    89   122   121    2
    90   121   120    1
    91    42    41   ar
    92    80    75   am
    93   102   101    1
    94   120   119    1
    95   172   171    1
    96   134   129   am
    97    43    44    1
    98   178   177    1
    99   178   179    1
   100   176   175    2
   101    75    74    1
   102    75    76    2
   103   101   103    1
   104   101   100    1
   105    44    45    1
   106    44    47    1
   107    77    78    1
   108    77    74    1
   109    77    79    1
   110   177   174    1
   111   171   170    1
   112   129   130    2
   113   129   128    1
   114   175   174    1
   115    74    73    1
   116    45    46    2
   117   179   173    1
   118   170   169    1
   119    47    48    1
   120   100    97    1
   121   174   173    1
   122   115   114    2
   123   127   128    1
   124   128   131    1
   125   173   167   am
   126   132   131    1
   127   131   133    1
   128    48    49    2
   129    48    50   am
   130    58    56    1
   131   117   116    1
   132    73    70   am
   133    71    70    2
   134   169   166    1
   135   114   113    1
   136    51    52    1
   137    97    96    1
   138    97    98    1
   139   167   166    1
   140   167   168    2
   141    96    90   am
   142    56    55    1
   143    70    69    1
   144   166   165    1
   145    94    93   ar
   146    88    89    1
   147   116   113    1
   148   116   118    1
   149    92    93    1
   150    92    89    1
   151   113   112    1
   152    93    95   ar
   153    55    52    1
   154    55    57    1
   155    98    99    2
   156    52    53    1
   157    89    90    1
   158    90    91    2
   159   157   156    2
   160   165   156   am
   161    69    68    1
   162    69    72    1
   163   141   142    1
   164    59    53   am
   165    59    60    1
   166    62    61    2
   167   156   155    1
   168    53    54    2
   169   145   142    1
   170   145   146    1
   171    61    60    1
   172   144   143    2
   173    60    63    1
   174   142   143    1
   175    63    64    1
   176   155   158    1
   177   155   154    1
   178   147   146    1
   179   147   148    1
   180   143   150   am
   181   110   109    2
   182   158   159    1
   183   108   109    1
   184   108   105    1
   185   154   152   am
   186   109   111   am
   187    64    65    1
   188   153   152    2
   189   152   151    1
   190   104   105    1
   191   148   149    1
   192   150   151    1
   193   106   105    1
   194   106   107    2
   195   159   160    1
   196   160   161    1
   197    65    66    2
   198    65    67   am
   199   163   162    1
   200   161   162    2
   201   162   164    1
