@<TRIPOS>MOLECULE
tmp/2dhnA00.pdb
 86 82 0 0 0
SMALL
GASTEIGER

@<TRIPOS>ATOM
      1  N         49.6350   51.4720   72.5540 N.3    18  ALA18      -0.1231
      2  CA        50.8890   51.9900   73.0890 C.3    18  ALA18       0.1694
      3  C         51.9200   52.3760   71.9840 C.2    18  ALA18       0.2591
      4  O         52.7060   53.3190   72.1450 O.2    18  ALA18      -0.2718
      5  CB        51.4770   50.9730   74.0750 C.3    18  ALA18       0.0304
      6  N         51.9080   51.6550   70.8660 N.am   19  LEU19      -0.1980
      7  CA        52.8230   51.9050   69.7420 C.3    19  LEU19       0.1596
      8  C         52.2790   52.9540   68.7390 C.2    19  LEU19       0.2287
      9  O         51.1760   52.7970   68.2070 O.2    19  LEU19      -0.2864
     10  CB        53.1080   50.5720   69.0260 C.3    19  LEU19       0.0297
     11  CG        53.7360   50.5360   67.6230 C.3    19  LEU19       0.0022
     12  CD1       55.1110   51.2340   67.6000 C.3    19  LEU19       0.0001
     13  CD2       53.8570   49.0820   67.1830 C.3    19  LEU19       0.0001
     14  N         50.2610   52.0960   65.4780 N.3    22  GLU22      -0.1245
     15  CA        48.8680   51.6980   65.6300 C.3    22  GLU22       0.1567
     16  C         47.9540   52.8790   65.9630 C.2    22  GLU22       0.2260
     17  O         46.7600   52.8430   65.6580 O.2    22  GLU22      -0.2867
     18  CB        48.7110   50.5450   66.6380 C.3    22  GLU22       0.0388
     19  CG        48.8940   50.8720   68.0880 C.3    22  GLU22       0.1160
     20  CD        48.8790   49.6280   68.9620 C.2    22  GLU22       0.3649
     21  OE1       47.9320   48.8190   68.8710 O.co2  22  GLU22      -0.2457
     22  OE2       49.8270   49.4570   69.7480 O.co2  22  GLU22      -0.2457
     23  N         46.6690   54.8160   75.4490 N.3    71  ASN71      -0.1225
     24  CA        47.6190   53.7370   75.2240 C.3    71  ASN71       0.1785
     25  C         47.0760   52.3520   75.5380 C.2    71  ASN71       0.2597
     26  O         47.3540   51.4020   74.8030 O.2    71  ASN71      -0.2718
     27  CB        48.9110   53.9220   76.0440 C.3    71  ASN71       0.1169
     28  CG        49.5410   55.2910   75.8640 C.2    71  ASN71       0.2627
     29  OD1       50.0310   55.6350   74.7920 O.2    71  ASN71      -0.2716
     30  ND2       49.5400   56.0850   76.9370 N.am   71  ASN71      -0.0877
     31  N         46.2940   52.2330   76.6110 N.am   72  LEU72      -0.1966
     32  CA        45.8130   50.9270   77.0570 C.3    72  LEU72       0.1728
     33  C         44.3260   50.6490   77.0400 C.2    72  LEU72       0.2616
     34  O         43.5200   51.5290   77.2930 O.2    72  LEU72      -0.2715
     35  CB        46.2900   50.6630   78.4910 C.3    72  LEU72       0.0311
     36  CG        47.7370   50.8560   78.9360 C.3    72  LEU72       0.0022
     37  CD1       47.8370   50.4650   80.4120 C.3    72  LEU72       0.0001
     38  CD2       48.6580   49.9840   78.1050 C.3    72  LEU72       0.0001
     39  N         43.9980   49.3870   76.7640 N.am   73  LEU73      -0.1963
     40  CA        42.6350   48.8800   76.7620 C.3    73  LEU73       0.1728
     41  C         42.1120   49.0150   78.1990 C.2    73  LEU73       0.2616
     42  O         40.9460   49.3000   78.3920 O.2    73  LEU73      -0.2715
     43  CB        42.6240   47.3910   76.3640 C.3    73  LEU73       0.0311
     44  CG        43.1110   46.9700   74.9720 C.3    73  LEU73       0.0022
     45  CD1       42.9640   45.4630   74.7530 C.3    73  LEU73       0.0001
     46  CD2       42.2490   47.6890   73.9690 C.3    73  LEU73       0.0001
     47  N         42.9850   48.8100   79.1910 N.am   74  GLU74      -0.1977
     48  CA        42.6410   48.9180   80.6390 C.3    74  GLU74       0.1602
     49  C         42.0030   50.2640   80.9610 C.2    74  GLU74       0.2287
     50  O         40.9570   50.3490   81.6090 O.2    74  GLU74      -0.2864
     51  CB        43.8850   48.7690   81.5150 C.3    74  GLU74       0.0415
     52  CG        44.3510   47.3570   81.7030 C.3    74  GLU74       0.1163
     53  CD        45.2540   46.8780   80.5840 C.2    74  GLU74       0.3649
     54  OE1       45.2940   47.5240   79.5190 O.co2  74  GLU74      -0.2457
     55  OE2       45.9350   45.8450   80.7640 O.co2  74  GLU74      -0.2457
     56  N         41.0260   43.1470   71.0780 N.3   100  LYS100     -0.1245
     57  CA        41.7580   43.6260   69.9080 C.3   100  LYS100      0.1561
     58  C         41.9090   42.3230   69.0860 C.2   100  LYS100      0.2260
     59  O         42.7370   41.4700   69.4030 O.2   100  LYS100     -0.2867
     60  CB        43.1430   44.1630   70.2910 C.3   100  LYS100      0.0271
     61  CG        43.2160   45.6650   70.5570 C.3   100  LYS100      0.0035
     62  CD        44.6860   46.1470   70.6470 C.3   100  LYS100      0.0206
     63  CE        44.7490   47.6100   71.1090 C.3   100  LYS100      0.1093
     64  NZ        46.1190   48.1100   71.4280 N.3   100  LYS100     -0.1314
     65  N         45.6890   42.9070   66.9180 N.3   103  PRO103     -0.2103
     66  CA        46.7050   43.7920   67.5050 C.3   103  PRO103      0.1489
     67  C         48.0680   43.5960   66.8060 C.2   103  PRO103      0.2417
     68  O         48.2220   42.6730   65.9880 O.2   103  PRO103     -0.2734
     69  CB        46.7910   43.2740   68.9330 C.3   103  PRO103      0.0282
     70  CG        46.5910   41.7650   68.7230 C.3   103  PRO103      0.0208
     71  CD        45.4040   41.7670   67.8160 C.3   103  PRO103      0.0893
     72  N         49.0580   44.4640   67.1080 N.am  104  PRO104     -0.2729
     73  CA        50.4210   44.4200   66.5720 C.3   104  PRO104      0.1401
     74  C         51.2070   43.1790   67.0380 C.2   104  PRO104      0.2269
     75  O         52.3210   43.3430   67.5050 O.2   104  PRO104     -0.2865
     76  CB        51.0530   45.6820   67.1680 C.3   104  PRO104      0.0296
     77  CG        49.9140   46.5940   67.3490 C.3   104  PRO104      0.0237
     78  CD        48.8970   45.6610   67.9520 C.3   104  PRO104      0.0939
     79  N         41.3520   42.5940   77.5740 N.3   114  ILE114     -0.1245
     80  CA        41.1790   42.6940   79.0060 C.3   114  ILE114      0.1561
     81  C         39.6930   42.7490   79.3530 C.2   114  ILE114      0.2260
     82  O         38.8480   43.0350   78.4910 O.2   114  ILE114     -0.2867
     83  CB        41.9640   43.9360   79.5950 C.3   114  ILE114      0.0252
     84  CG1       41.4090   45.2620   79.0830 C.3   114  ILE114      0.0019
     85  CG2       43.4360   43.8650   79.1990 C.3   114  ILE114      0.0019
     86  CD1       40.2360   45.8460   79.8970 C.3   114  ILE114      0.0001
@<TRIPOS>BOND
     1    14    15    1
     2    15    16    1
     3    15    18    1
     4    17    16    2
     5    68    67    2
     6    73    74    1
     7    73    72    1
     8    73    76    1
     9    18    19    1
    10    67    72   am
    11    67    66    1
    12    65    66    1
    13    65    71    1
    14    74    75    2
    15    72    78    1
    16    76    77    1
    17    13    11    1
    18    77    78    1
    19    66    69    1
    20    12    11    1
    21    11    10    1
    22    71    70    1
    23    19    20    1
    24     9     8    2
    25    70    69    1
    26     8     7    1
    27    21    20   ar
    28    20    22   ar
    29    10     7    1
    30    58    59    2
    31    58    57    1
    32     7     6    1
    33    57    60    1
    34    57    56    1
    35    60    61    1
    36    61    62    1
    37    62    63    1
    38     6     3   am
    39    63    64    1
    40     3     4    2
    41     3     2    1
    42     1     2    1
    43     2     5    1
    44    46    44    1
    45    45    44    1
    46    29    28    2
    47    26    25    2
    48    44    43    1
    49    24    23    1
    50    24    25    1
    51    24    27    1
    52    25    31   am
    53    28    27    1
    54    28    30   am
    55    43    40    1
    56    31    32    1
    57    40    39    1
    58    40    41    1
    59    39    33   am
    60    33    32    1
    61    33    34    2
    62    32    35    1
    63    79    80    1
    64    38    36    1
    65    41    42    2
    66    41    47   am
    67    35    36    1
    68    82    81    2
    69    36    37    1
    70    80    81    1
    71    80    83    1
    72    84    83    1
    73    84    86    1
    74    47    48    1
    75    85    83    1
    76    54    53   ar
    77    53    55   ar
    78    53    52    1
    79    48    49    1
    80    48    51    1
    81    49    50    2
    82    51    52    1
