@<TRIPOS>MOLECULE
tmp/2dijA02.pdb
 121 118 0 0 0
SMALL
GASTEIGER

@<TRIPOS>ATOM
      1  N         57.7620   90.8820   52.8080 N.3   184  SER184     -0.1202
      2  CA        59.1560   91.3000   52.8150 C.3   184  SER184      0.2020
      3  C         60.0620   90.3980   51.9890 C.2   184  SER184      0.2619
      4  O         60.7660   90.8500   51.0930 O.2   184  SER184     -0.2717
      5  CB        59.6970   91.5160   54.2160 C.3   184  SER184      0.2103
      6  OG        59.7150   90.2960   54.9270 O.3   184  SER184     -0.2182
      7  N         60.0450   89.1130   52.2900 N.am  185  THR185     -0.1938
      8  CA        60.8590   88.1680   51.5580 C.3   185  THR185      0.2028
      9  C         60.0110   87.0430   50.9970 C.2   185  THR185      0.2643
     10  O         58.8650   86.8480   51.4050 O.2   185  THR185     -0.2714
     11  CB        62.0220   87.6290   52.4090 C.3   185  THR185      0.1808
     12  OG1       61.5350   86.7270   53.3850 O.3   185  THR185     -0.2208
     13  CG2       62.7260   88.7940   53.0860 C.3   185  THR185      0.0379
     14  N         60.5730   86.3060   50.0520 N.am  186  THR186     -0.1936
     15  CA        59.8500   85.2080   49.4590 C.3   186  THR186      0.2028
     16  C         59.5020   84.1670   50.5090 C.2   186  THR186      0.2642
     17  O         58.3670   83.6890   50.5920 O.2   186  THR186     -0.2714
     18  CB        60.6210   84.5940   48.2910 C.3   186  THR186      0.1808
     19  OG1       60.6300   85.5150   47.2200 O.3   186  THR186     -0.2208
     20  CG2       59.9510   83.2930   47.8630 C.3   186  THR186      0.0379
     21  N         60.5010   83.8370   51.3210 N.am  187  GLU187     -0.1976
     22  CA        60.3420   82.8760   52.3870 C.3   187  GLU187      0.1602
     23  C         59.2160   83.3070   53.3080 C.2   187  GLU187      0.2287
     24  O         58.4100   82.4990   53.7660 O.2   187  GLU187     -0.2864
     25  CB        61.6650   82.7200   53.1670 C.3   187  GLU187      0.0415
     26  CG        61.5750   81.7990   54.3960 C.3   187  GLU187      0.1163
     27  CD        62.7710   81.9420   55.2940 C.2   187  GLU187      0.3649
     28  OE1       63.7140   82.6600   55.0250 O.co2 187  GLU187     -0.2457
     29  OE2       62.7100   81.1940   56.3670 O.co2 187  GLU187     -0.2457
     30  N         77.6850   80.9860   57.9390 N.3   598  THR598     -0.1203
     31  CA        78.0760   81.5810   56.6920 C.3   598  THR598      0.1994
     32  C         78.3170   83.0660   56.8480 C.2   598  THR598      0.2618
     33  O         78.0920   83.6400   57.9100 O.2   598  THR598     -0.2717
     34  CB        76.9680   81.3580   55.6460 C.3   598  THR598      0.1784
     35  OG1       75.7460   81.8480   56.1640 O.3   598  THR598     -0.2211
     36  CG2       76.8300   79.8770   55.3150 C.3   598  THR598      0.0376
     37  N         78.7640   83.6760   55.7600 N.am  599  ALA599     -0.1965
     38  CA        79.0160   85.0980   55.7100 C.3   599  ALA599      0.1728
     39  C         77.9640   85.7720   54.8510 C.2   599  ALA599      0.2616
     40  O         77.2920   85.1260   54.0450 O.2   599  ALA599     -0.2715
     41  CB        80.4080   85.3870   55.1780 C.3   599  ALA599      0.0334
     42  N         77.8160   87.0720   55.0310 N.am  600  LEU600     -0.1963
     43  CA        76.8480   87.8170   54.2690 C.3   600  LEU600      0.1728
     44  C         77.0520   87.6100   52.7870 C.2   600  LEU600      0.2617
     45  O         78.1600   87.7560   52.2760 O.2   600  LEU600     -0.2715
     46  CB        76.8580   89.3090   54.6320 C.3   600  LEU600      0.0311
     47  CG        76.1080   89.5830   55.9280 C.3   600  LEU600      0.0022
     48  CD1       76.4600   90.9670   56.4630 C.3   600  LEU600      0.0001
     49  CD2       74.6080   89.4810   55.6760 C.3   600  LEU600      0.0001
     50  N         75.9740   87.2500   52.1040 N.am  601  GLY601     -0.1940
     51  CA        76.0250   87.0130   50.6780 C.3   601  GLY601      0.2014
     52  C         76.3380   85.5610   50.3630 C.2   601  GLY601      0.2639
     53  O         76.2740   85.1310   49.2120 O.2   601  GLY601     -0.2714
     54  N         76.6750   84.8090   51.4050 N.am  602  GLN602     -0.1963
     55  CA        76.9920   83.4030   51.2690 C.3   602  GLN602      0.1733
     56  C         75.8310   82.5350   51.7370 C.2   602  GLN602      0.2616
     57  O         75.3910   82.6290   52.8810 O.2   602  GLN602     -0.2715
     58  CB        78.2780   83.0640   52.0320 C.3   602  GLN602      0.0408
     59  CG        78.5730   81.5580   52.0950 C.3   602  GLN602      0.0908
     60  CD        79.8740   81.2640   52.8090 C.2   602  GLN602      0.2608
     61  OE1       79.9360   81.2490   54.0490 O.2   602  GLN602     -0.2717
     62  NE2       80.9340   81.0870   52.0280 N.am  602  GLN602     -0.0878
     63  N         75.3280   81.6890   50.8450 N.am  603  ASN603     -0.1972
     64  CA        74.2010   80.8400   51.1730 C.3   603  ASN603      0.1688
     65  C         74.4870   79.3550   51.0830 C.2   603  ASN603      0.2292
     66  O         75.4690   78.9160   50.4890 O.2   603  ASN603     -0.2864
     67  CB        72.9820   81.1820   50.3060 C.3   603  ASN603      0.1181
     68  CG        72.4900   82.5860   50.5380 C.2   603  ASN603      0.2629
     69  OD1       71.7160   82.8360   51.4690 O.2   603  ASN603     -0.2716
     70  ND2       72.9490   83.5100   49.6990 N.am  603  ASN603     -0.0877
     71  N         68.8600   77.8210   50.3650 N.3   625  MET625     -0.1245
     72  CA        67.9330   77.3860   51.3890 C.3   625  MET625      0.1570
     73  C         67.4400   78.5480   52.2440 C.2   625  MET625      0.2261
     74  O         67.9630   79.6570   52.1600 O.2   625  MET625     -0.2867
     75  CB        68.5110   76.2450   52.2480 C.3   625  MET625      0.0387
     76  CG        68.8620   75.0140   51.4230 C.3   625  MET625      0.0595
     77  SD        69.6570   73.7050   52.3920 S.3   625  MET625     -0.1393
     78  CE        68.3100   73.2090   53.4990 C.3   625  MET625      0.0692
     79  N         66.1800   80.2370   56.1490 N.3   627  ASN627     -0.1225
     80  CA        66.6820   80.2340   57.5100 C.3   627  ASN627      0.1785
     81  C         66.0470   81.3050   58.3930 C.2   627  ASN627      0.2597
     82  O         66.6310   81.7220   59.3990 O.2   627  ASN627     -0.2718
     83  CB        68.2150   80.3550   57.5340 C.3   627  ASN627      0.1169
     84  CG        68.6910   81.6030   56.8250 C.2   627  ASN627      0.2627
     85  OD1       67.8860   82.4830   56.4870 O.2   627  ASN627     -0.2716
     86  ND2       69.9940   81.6790   56.5860 N.am  627  ASN627     -0.0877
     87  N         64.8410   81.7440   58.0260 N.am  628  GLN628     -0.1979
     88  CA        64.1460   82.7670   58.7890 C.3   628  GLN628      0.1601
     89  C         62.9520   82.2530   59.5910 C.2   628  GLN628      0.2287
     90  O         62.9590   82.2590   60.8220 O.2   628  GLN628     -0.2864
     91  CB        63.6900   83.9510   57.9160 C.3   628  GLN628      0.0394
     92  CG        64.8140   84.6530   57.1290 C.3   628  GLN628      0.0908
     93  CD        64.2770   85.4400   55.9370 C.2   628  GLN628      0.2608
     94  OE1       63.0670   85.4200   55.6360 O.2   628  GLN628     -0.2717
     95  NE2       65.1770   86.1330   55.2420 N.am  628  GLN628     -0.0878
     96  N         68.7790   80.6720   61.3000 N.3   633  TYR633     -0.1241
     97  CA        70.2190   80.5630   61.1690 C.3   633  TYR633      0.1605
     98  C         70.8390   80.3540   62.5410 C.2   633  TYR633      0.2264
     99  O         70.3080   80.8630   63.5240 O.2   633  TYR633     -0.2867
    100  CB        70.7560   81.8420   60.5080 C.3   633  TYR633      0.0534
    101  CG        72.2530   81.9040   60.3800 C.ar  633  TYR633     -0.0201
    102  CD1       73.0300   82.4290   61.4110 C.ar  633  TYR633     -0.0009
    103  CD2       72.8950   81.4820   59.2150 C.ar  633  TYR633     -0.0009
    104  CE1       74.4170   82.5120   61.2980 C.ar  633  TYR633      0.0417
    105  CE2       74.2810   81.5570   59.0820 C.ar  633  TYR633      0.0417
    106  CZ        75.0410   82.0740   60.1300 C.ar  633  TYR633      0.1957
    107  OH        76.4000   82.1540   60.0150 O.3   633  TYR633     -0.2866
    108  N         69.3080   75.7830   58.4850 N.3   636  TRP636     -0.1241
    109  CA        68.7220   76.0100   57.1720 C.3   636  TRP636      0.1605
    110  C         67.7560   74.9090   56.7790 C.2   636  TRP636      0.2264
    111  O         67.9700   73.7350   57.0870 O.2   636  TRP636     -0.2867
    112  CB        69.7940   76.1670   56.0800 C.3   636  TRP636      0.0550
    113  CG        70.8410   77.2000   56.3760 C.ar  636  TRP636      0.0003
    114  CD1       71.7120   77.1910   57.4170 C.ar  636  TRP636      0.0946
    115  CD2       71.1540   78.3690   55.6010 C.ar  636  TRP636      0.0152
    116  NE1       72.5410   78.2790   57.3540 N.ar  636  TRP636     -0.2442
    117  CE2       72.2260   79.0200   56.2490 C.ar  636  TRP636      0.0810
    118  CE3       70.6350   78.9200   54.4300 C.ar  636  TRP636      0.0012
    119  CZ2       72.7770   80.2020   55.7520 C.ar  636  TRP636      0.0191
    120  CZ3       71.1850   80.0860   53.9380 C.ar  636  TRP636      0.0001
    121  CH2       72.2460   80.7190   54.5930 C.ar  636  TRP636      0.0015
@<TRIPOS>BOND
     1    19    18    1
     2    20    18    1
     3    18    15    1
     4    53    52    2
     5    15    14    1
     6    15    16    1
     7    70    68   am
     8    14     9   am
     9    67    68    1
    10    67    64    1
    11    52    51    1
    12    52    54   am
    13    71    72    1
    14    66    65    2
    15    16    17    2
    16    16    21   am
    17    68    69    2
    18    51    50    1
    19    63    64    1
    20    63    56   am
    21     9    10    2
    22     9     8    1
    23    65    64    1
    24     4     3    2
    25    55    54    1
    26    55    56    1
    27    55    58    1
    28    21    22    1
    29    72    73    1
    30    72    75    1
    31    76    75    1
    32    76    77    1
    33     8     7    1
    34     8    11    1
    35    56    57    2
    36     3     7   am
    37     3     2    1
    38    62    60   am
    39    58    59    1
    40    59    60    1
    41    50    44   am
    42    74    73    2
    43    45    44    2
    44    22    25    1
    45    22    23    1
    46    77    78    1
    47    11    13    1
    48    11    12    1
    49    44    43    1
    50     1     2    1
    51    60    61    2
    52     2     5    1
    53    25    26    1
    54    23    24    2
    55   120   118   ar
    56   120   121   ar
    57    40    39    2
    58     5     6    1
    59    43    46    1
    60    43    42    1
    61    26    27    1
    62   118   115   ar
    63   121   119   ar
    64    46    47    1
    65    39    42   am
    66    39    38    1
    67    28    27   ar
    68    41    38    1
    69    95    93   am
    70    27    29   ar
    71    36    34    1
    72   115   117   ar
    73   115   113   ar
    74    94    93    2
    75    34    35    1
    76    34    31    1
    77    49    47    1
    78    38    37    1
    79   119   117   ar
    80    37    32   am
    81    47    48    1
    82    93    92    1
    83   112   113    1
    84   112   109    1
    85    79    80    1
    86   117   116   ar
    87   113   114   ar
    88    85    84    2
    89    86    84   am
    90    31    32    1
    91    31    30    1
    92   110   111    2
    93   110   109    1
    94    84    83    1
    95    32    33    2
    96    92    91    1
    97   109   108    1
    98   116   114   ar
    99    80    83    1
   100    80    81    1
   101    91    88    1
   102    87    81   am
   103    87    88    1
   104    81    82    2
   105    88    89    1
   106   105   103   ar
   107   105   106   ar
   108   103   101   ar
   109    89    90    2
   110   107   106    1
   111   106   104   ar
   112   101   100    1
   113   101   102   ar
   114   100    97    1
   115    97    96    1
   116    97    98    1
   117   104   102   ar
   118    98    99    2
