@<TRIPOS>MOLECULE
tmp/2djhA00.pdb
 189 181 0 0 0
SMALL
GASTEIGER

@<TRIPOS>ATOM
      1  N         14.1020   17.8230   15.1860 N.3    10  LYS10      -0.1231
      2  CA        14.4550   17.6400   13.7810 C.3    10  LYS10       0.1693
      3  C         14.0200   18.8510   12.9470 C.2    10  LYS10       0.2591
      4  O         14.8240   19.4430   12.2250 O.2    10  LYS10      -0.2718
      5  CB        13.7900   16.3640   13.2560 C.3    10  LYS10       0.0285
      6  CG        14.6710   15.5130   12.3510 C.3    10  LYS10       0.0035
      7  CD        14.5540   15.9120   10.8910 C.3    10  LYS10       0.0206
      8  CE        14.7740   14.7080    9.9810 C.3    10  LYS10       0.1093
      9  NZ        13.5070   14.2130    9.3660 N.3    10  LYS10      -0.1314
     10  N         12.7450   19.2160   13.0550 N.am   11  ILE11      -0.1980
     11  CA        12.2050   20.3550   12.3240 C.3    11  ILE11       0.1595
     12  C         12.8900   21.6540   12.7540 C.2    11  ILE11       0.2287
     13  O         13.2050   22.5070   11.9240 O.2    11  ILE11      -0.2864
     14  CB        10.6740   20.4950   12.5570 C.3    11  ILE11       0.0276
     15  CG1        9.9450   19.2630   12.0090 C.3    11  ILE11       0.0022
     16  CG2       10.1510   21.7630   11.8850 C.3    11  ILE11       0.0022
     17  CD1       10.1790   19.0120   10.5230 C.3    11  ILE11       0.0001
     18  N         16.0530   22.2350   10.9450 N.3    14  GLN14      -0.1245
     19  CA        15.9140   22.4460    9.5050 C.3    14  GLN14       0.1566
     20  C         15.4330   23.8470    9.1610 C.2    14  GLN14       0.2260
     21  O         15.7280   24.3600    8.0860 O.2    14  GLN14      -0.2867
     22  CB        14.9290   21.4370    8.8980 C.3    14  GLN14       0.0367
     23  CG        15.2940   19.9800    9.1080 C.3    14  GLN14       0.0905
     24  CD        14.2690   19.0310    8.5110 C.2    14  GLN14       0.2608
     25  OE1       13.0690   19.3120    8.5120 O.2    14  GLN14      -0.2717
     26  NE2       14.7360   17.8960    8.0110 N.am   14  GLN14      -0.0878
     27  N         16.1610   25.8490    5.7620 N.3    18  ARG18      -0.1245
     28  CA        15.0850   25.9060    4.7810 C.3    18  ARG18       0.1563
     29  C         14.3730   27.2520    4.7050 C.2    18  ARG18       0.2260
     30  O         13.3770   27.3910    3.9960 O.2    18  ARG18      -0.2867
     31  CB        14.0760   24.7820    5.0490 C.3    18  ARG18       0.0307
     32  CG        14.7250   23.4040    5.0200 C.3    18  ARG18       0.0489
     33  CD        13.7200   22.2590    5.0240 C.3    18  ARG18       0.2205
     34  NE        14.4110   20.9790    5.1620 N.pl3  18  ARG18      -0.0865
     35  CZ        13.8250   19.7900    5.0720 C.cat  18  ARG18       0.5346
     36  NH1       14.5440   18.6850    5.2140 N.pl3  18  ARG18       0.1354
     37  NH2       12.5230   19.7030    4.8350 N.pl3  18  ARG18       0.1354
     38  N         -3.1420   16.2100    3.2860 N.3    37  SER37      -0.1202
     39  CA        -2.0650   15.2640    3.0590 C.3    37  SER37       0.2020
     40  C         -2.1490   14.1500    4.0880 C.2    37  SER37       0.2619
     41  O         -3.1660   13.9870    4.7540 O.2    37  SER37      -0.2717
     42  CB        -0.7120   15.9810    3.1690 C.3    37  SER37       0.2103
     43  OG         0.3480   15.1460    2.7410 O.3    37  SER37      -0.2182
     44  N         -1.0810   13.3730    4.1950 N.am   38  PHE38      -0.1961
     45  CA        -1.0190   12.2950    5.1610 C.3    38  PHE38       0.1771
     46  C          0.3680   12.3020    5.7700 C.2    38  PHE38       0.2620
     47  O          1.3630   12.4480    5.0600 O.2    38  PHE38      -0.2715
     48  CB        -1.2820   10.9330    4.5020 C.3    38  PHE38       0.0574
     49  CG        -2.6880   10.7570    4.0160 C.ar   38  PHE38      -0.0200
     50  CD1       -3.0100   10.9670    2.6790 C.ar   38  PHE38      -0.0042
     51  CD2       -3.7050   10.4250    4.9060 C.ar   38  PHE38      -0.0042
     52  CE1       -4.3250   10.8490    2.2380 C.ar   38  PHE38      -0.0003
     53  CE2       -5.0200   10.3060    4.4740 C.ar   38  PHE38      -0.0003
     54  CZ        -5.3320   10.5190    3.1400 C.ar   38  PHE38      -0.0000
     55  N          0.4260   12.1790    7.0900 N.am   39  ASP39      -0.1957
     56  CA         1.6990   12.1270    7.7950 C.3    39  ASP39       0.1840
     57  C          2.0230   10.6400    7.9360 C.2    39  ASP39       0.2622
     58  O          1.4320    9.9460    8.7580 O.2    39  ASP39      -0.2715
     59  CB         1.5730   12.7860    9.1750 C.3    39  ASP39       0.1450
     60  CG         2.8820   12.7810    9.9570 C.2    39  ASP39       0.3671
     61  OD1        2.9570   13.4850   10.9910 O.co2  39  ASP39      -0.2456
     62  OD2        3.8310   12.0730    9.5540 O.co2  39  ASP39      -0.2456
     63  N          2.9470   10.1590    7.1080 N.am   40  LYS40      -0.1963
     64  CA         3.3530    8.7560    7.1210 C.3    40  LYS40       0.1728
     65  C          4.8310    8.6450    7.4890 C.2    40  LYS40       0.2616
     66  O          5.5400    7.7650    6.9920 O.2    40  LYS40      -0.2715
     67  CB         3.1230    8.1300    5.7410 C.3    40  LYS40       0.0311
     68  CG         1.6940    8.2420    5.2110 C.3    40  LYS40       0.0038
     69  CD         0.7450    7.2670    5.8880 C.3    40  LYS40       0.0206
     70  CE         1.0650    5.8270    5.5230 C.3    40  LYS40       0.1093
     71  NZ         0.8970    5.5660    4.0630 N.3    40  LYS40      -0.1314
     72  N          5.2920    9.5450    8.3530 N.am   41  ARG41      -0.1963
     73  CA         6.6830    9.5520    8.7820 C.3    41  ARG41       0.1729
     74  C          7.1390    8.2270    9.3800 C.2    41  ARG41       0.2616
     75  O          6.3800    7.5400   10.0670 O.2    41  ARG41      -0.2715
     76  CB         6.9200   10.6690    9.8030 C.3    41  ARG41       0.0348
     77  CG         7.0050   12.0560    9.1910 C.3    41  ARG41       0.0492
     78  CD         7.2310   13.1060   10.2660 C.3    41  ARG41       0.2205
     79  NE         6.0440   13.3040   11.0930 N.pl3  41  ARG41      -0.0865
     80  CZ         6.0780   13.7570   12.3410 C.cat  41  ARG41       0.5346
     81  NH1        4.9520   13.9170   13.0270 N.pl3  41  ARG41       0.1354
     82  NH2        7.2430   14.0340   12.9100 N.pl3  41  ARG41       0.1354
     83  N          8.3940    7.8850    9.1170 N.am   42  SER42      -0.1950
     84  CA         8.9890    6.6590    9.6230 C.3    42  SER42       0.1924
     85  C          9.3800    6.8700   11.0810 C.2    42  SER42       0.2314
     86  O          9.5220    8.0050   11.5400 O.2    42  SER42      -0.2863
     87  CB        10.2280    6.3030    8.7990 C.3    42  SER42       0.2116
     88  OG        11.1900    7.3410    8.8780 O.3    42  SER42      -0.2180
     89  N         12.1800    6.7050   12.8570 N.3    44  LYS44      -0.1231
     90  CA        13.3300    7.5540   13.1380 C.3    44  LYS44       0.1693
     91  C         13.0180    9.0460   13.1200 C.2    44  LYS44       0.2591
     92  O         13.7060    9.8320   13.7720 O.2    44  LYS44      -0.2718
     93  CB        14.4640    7.2480   12.1540 C.3    44  LYS44       0.0285
     94  CG        14.1440    7.5550   10.7060 C.3    44  LYS44       0.0035
     95  CD        15.2140    6.9890    9.7840 C.3    44  LYS44       0.0206
     96  CE        14.9820    7.3980    8.3360 C.3    44  LYS44       0.1093
     97  NZ        15.1750    8.8620    8.1450 N.3    44  LYS44      -0.1314
     98  N         11.9730    9.4380   12.3980 N.am   45  LYS45      -0.1980
     99  CA        11.6250   10.8510   12.3080 C.3    45  LYS45       0.1596
    100  C         10.4080   11.3040   13.1100 C.2    45  LYS45       0.2287
    101  O          9.8230   12.3480   12.8140 O.2    45  LYS45      -0.2864
    102  CB        11.4480   11.2410   10.8400 C.3    45  LYS45       0.0298
    103  CG        12.7230   11.0770   10.0340 C.3    45  LYS45       0.0038
    104  CD        12.5860   11.6040    8.6220 C.3    45  LYS45       0.0206
    105  CE        13.9210   11.5260    7.8980 C.3    45  LYS45       0.1093
    106  NZ        13.8070   11.9280    6.4780 N.3    45  LYS45      -0.1314
    107  N          3.2850   21.2460    6.6040 N.3    68  VAL68      -0.1245
    108  CA         2.3180   20.1640    6.7420 C.3    68  VAL68       0.1561
    109  C          2.1560   19.8860    8.2300 C.2    68  VAL68       0.2260
    110  O          3.1460   19.7680    8.9520 O.2    68  VAL68      -0.2867
    111  CB         2.7920   18.8750    6.0310 C.3    68  VAL68       0.0252
    112  CG1        1.7470   17.7780    6.1910 C.3    68  VAL68       0.0019
    113  CG2        3.0390   19.1610    4.5590 C.3    68  VAL68       0.0019
    114  N          4.6990   18.1270   10.3960 N.3    77  THR77      -0.1203
    115  CA         5.2040   16.9540    9.6790 C.3    77  THR77       0.1994
    116  C          6.3910   17.3070    8.7970 C.2    77  THR77       0.2617
    117  O          7.3730   16.5630    8.7220 O.2    77  THR77      -0.2717
    118  CB         4.1040   16.3470    8.7850 C.3    77  THR77       0.1784
    119  OG1        2.9420   16.0900    9.5790 O.3    77  THR77      -0.2211
    120  CG2        4.5850   15.0400    8.1400 C.3    77  THR77       0.0376
    121  N          6.2920   18.4430    8.1190 N.am   78  GLN78      -0.1979
    122  CA         7.3610   18.8790    7.2410 C.3    78  GLN78       0.1601
    123  C          7.2560   20.3500    6.8890 C.2    78  GLN78       0.2287
    124  O          6.1790   20.9360    6.9110 O.2    78  GLN78      -0.2864
    125  CB         7.3450   18.0580    5.9420 C.3    78  GLN78       0.0394
    126  CG         8.1830   18.6450    4.7980 C.3    78  GLN78       0.0908
    127  CD         8.1680   17.7840    3.5370 C.2    78  GLN78       0.2608
    128  OE1        9.0770   16.9820    3.2970 O.2    78  GLN78      -0.2717
    129  NE2        7.1300   17.9400    2.7330 N.am   78  GLN78      -0.0878
    130  N         15.2290   26.1900   -1.9990 N.3    84  ASP84      -0.1239
    131  CA        15.4280   25.2660   -3.1130 C.3    84  ASP84       0.1674
    132  C         14.3390   25.4600   -4.1720 C.2    84  ASP84       0.2266
    133  O         13.2000   25.0230   -4.0000 O.2    84  ASP84      -0.2867
    134  CB        15.4050   23.8240   -2.5850 C.3    84  ASP84       0.1410
    135  CG        15.6210   22.7860   -3.6790 C.2    84  ASP84       0.3668
    136  OD1       15.7280   23.1680   -4.8620 O.co2  84  ASP84      -0.2456
    137  OD2       15.6810   21.5820   -3.3480 O.co2  84  ASP84      -0.2456
    138  N         14.0420   24.0060   -6.8540 N.3    86  GLY86      -0.1210
    139  CA        13.6940   22.7330   -7.4580 C.3    86  GLY86       0.1956
    140  C         12.9430   21.8090   -6.5130 C.2    86  GLY86       0.2612
    141  O         12.7810   20.6260   -6.8010 O.2    86  GLY86      -0.2717
    142  N         12.4690   22.3360   -5.3870 N.am   87  TRP87      -0.1962
    143  CA        11.7520   21.5050   -4.4220 C.3    87  TRP87       0.1771
    144  C         10.5120   20.8300   -5.0110 C.2    87  TRP87       0.2619
    145  O          9.6490   21.4850   -5.6000 O.2    87  TRP87      -0.2715
    146  CB        11.3590   22.3370   -3.1930 C.3    87  TRP87       0.0590
    147  CG        10.6990   21.5370   -2.0900 C.ar   87  TRP87       0.0006
    148  CD1        9.3640   21.2800   -1.9460 C.ar   87  TRP87       0.0946
    149  CD2       11.3520   20.8810   -0.9940 C.ar   87  TRP87       0.0152
    150  NE1        9.1440   20.5080   -0.8280 N.ar   87  TRP87      -0.2442
    151  CE2       10.3460   20.2490   -0.2240 C.ar   87  TRP87       0.0810
    152  CE3       12.6880   20.7650   -0.5860 C.ar   87  TRP87       0.0012
    153  CZ2       10.6360   19.5110    0.9320 C.ar   87  TRP87       0.0191
    154  CZ3       12.9780   20.0290    0.5650 C.ar   87  TRP87       0.0001
    155  CH2       11.9520   19.4130    1.3100 C.ar   87  TRP87       0.0015
    156  N         10.4410   19.5110   -4.8580 N.am   88  VAL88      -0.1977
    157  CA         9.3040   18.7350   -5.3440 C.3    88  VAL88       0.1596
    158  C          8.4000   18.4490   -4.1440 C.2    88  VAL88       0.2287
    159  O          8.8330   17.8350   -3.1690 O.2    88  VAL88      -0.2864
    160  CB         9.7550   17.3860   -5.9480 C.3    88  VAL88       0.0276
    161  CG1        8.5760   16.7150   -6.6450 C.3    88  VAL88       0.0022
    162  CG2       10.9140   17.5960   -6.9210 C.3    88  VAL88       0.0022
    163  N          5.9330   16.9210   -1.4660 N.3    90  ASP90      -0.1239
    164  CA         5.8120   15.5390   -1.0340 C.3    90  ASP90       0.1674
    165  C          4.6510   14.8930   -1.7920 C.2    90  ASP90       0.2266
    166  O          3.6610   15.5550   -2.0920 O.2    90  ASP90      -0.2867
    167  CB         5.5710   15.4760    0.4740 C.3    90  ASP90       0.1410
    168  CG         5.4750   14.0520    0.9850 C.2    90  ASP90       0.3668
    169  OD1        4.3540   13.5000    1.0120 O.co2  90  ASP90      -0.2456
    170  OD2        6.5240   13.4810    1.3480 O.co2  90  ASP90      -0.2456
    171  N          2.2880   12.9500   -0.9110 N.3    92  ARG92      -0.1231
    172  CA         0.9990   12.8240   -0.2450 C.3    92  ARG92       0.1694
    173  C          0.1570   14.0880   -0.2620 C.2    92  ARG92       0.2591
    174  O         -1.0340   14.0410    0.0220 O.2    92  ARG92      -0.2718
    175  CB         1.2080   12.3440    1.1880 C.3    92  ARG92       0.0321
    176  CG         1.5000   10.8670    1.2600 C.3    92  ARG92       0.0489
    177  CD         2.4550   10.5220    2.3810 C.3    92  ARG92       0.2205
    178  NE         3.7840   11.0660    2.1260 N.pl3  92  ARG92      -0.0865
    179  CZ         4.9060   10.3590    2.2050 C.cat  92  ARG92       0.5346
    180  NH1        4.8630    9.0740    2.5300 N.pl3  92  ARG92       0.1354
    181  NH2        6.0710   10.9380    1.9640 N.pl3  92  ARG92       0.1354
    182  N          0.7700   15.2090   -0.6200 N.am   93  ILE93      -0.1980
    183  CA         0.0680   16.4830   -0.6440 C.3    93  ILE93       0.1595
    184  C         -0.9520   16.6010   -1.7720 C.2    93  ILE93       0.2287
    185  O         -0.6600   16.3210   -2.9370 O.2    93  ILE93      -0.2864
    186  CB         1.0720   17.6560   -0.7350 C.3    93  ILE93       0.0276
    187  CG1        1.9150   17.7010    0.5420 C.3    93  ILE93       0.0022
    188  CG2        0.3360   18.9800   -0.9240 C.3    93  ILE93       0.0022
    189  CD1        3.0840   18.6530    0.4790 C.3    93  ILE93       0.0001
@<TRIPOS>BOND
     1   139   138    1
     2   139   140    1
     3   162   160    1
     4   141   140    2
     5   161   160    1
     6   140   142   am
     7   160   157    1
     8   145   144    2
     9   142   143    1
    10   157   156    1
    11   157   158    1
    12   144   156   am
    13   144   143    1
    14   136   135   ar
    15   143   146    1
    16   132   133    2
    17   132   131    1
    18   158   159    2
    19   135   137   ar
    20   135   134    1
    21   146   147    1
    22   131   134    1
    23   131   130    1
    24   185   184    2
    25   166   165    2
    26   147   148   ar
    27   147   149   ar
    28   148   150   ar
    29   165   164    1
    30   184   183    1
    31   163   164    1
    32   164   167    1
    33   149   152   ar
    34   149   151   ar
    35   188   186    1
    36   171   172    1
    37   150   151   ar
    38   186   183    1
    39   186   187    1
    40   183   182    1
    41   182   173   am
    42   152   154   ar
    43   173   172    1
    44   173   174    2
    45   172   175    1
    46   151   153   ar
    47   167   168    1
    48   189   187    1
    49   154   155   ar
    50   153   155   ar
    51   168   169   ar
    52   168   170   ar
    53   175   176    1
    54   176   177    1
    55   181   179    1
    56   178   179    2
    57   178   177    1
    58   179   180    1
    59    52    50   ar
    60    52    54   ar
    61    50    49   ar
    62   129   127   am
    63    43    42    1
    64    39    42    1
    65    39    38    1
    66    39    40    1
    67    54    53   ar
    68   128   127    2
    69   127   126    1
    70    30    29    2
    71    49    48    1
    72    49    51   ar
    73    71    70    1
    74    40    44   am
    75    40    41    2
    76    44    45    1
    77    53    51   ar
    78    48    45    1
    79   113   111    1
    80    29    28    1
    81    28    31    1
    82    28    27    1
    83   126   125    1
    84    37    35    1
    85    32    33    1
    86    32    31    1
    87    33    34    1
    88    47    46    2
    89    35    34    2
    90    35    36    1
    91    45    46    1
    92    68    67    1
    93    68    69    1
    94    70    69    1
    95    67    64    1
    96    46    55   am
    97   125   122    1
    98   111   112    1
    99   111   108    1
   100   106   105    1
   101   107   108    1
   102   108   109    1
   103   123   124    2
   104   123   122    1
   105    66    65    2
   106    55    56    1
   107    63    64    1
   108    63    57   am
   109    64    65    1
   110   122   121    1
   111    65    72   am
   112    56    57    1
   113    56    59    1
   114   105   104    1
   115    57    58    2
   116    26    24   am
   117    21    20    2
   118   121   116   am
   119   120   118    1
   120    97    96    1
   121   109   110    2
   122    96    95    1
   123    72    73    1
   124    24    25    2
   125    24    23    1
   126   104   103    1
   127   117   116    2
   128    73    74    1
   129    73    76    1
   130   118   119    1
   131   118   115    1
   132   116   115    1
   133    87    88    1
   134    87    84    1
   135    22    23    1
   136    22    19    1
   137    83    74   am
   138    83    84    1
   139    20    19    1
   140    59    60    1
   141    77    76    1
   142    77    78    1
   143     9     8    1
   144    74    75    2
   145    19    18    1
   146    62    60   ar
   147    84    85    1
   148   115   114    1
   149    95    94    1
   150    60    61   ar
   151     8     7    1
   152   103   102    1
   153    78    79    1
   154    17    15    1
   155    94    93    1
   156   102    99    1
   157     7     6    1
   158    85    86    2
   159    79    80    2
   160    16    14    1
   161    13    12    2
   162    15    14    1
   163    93    90    1
   164     4     3    2
   165    99    98    1
   166    99   100    1
   167    11    14    1
   168    11    12    1
   169    11    10    1
   170    80    82    1
   171    80    81    1
   172     6     5    1
   173    98    91   am
   174   101   100    2
   175    89    90    1
   176     3    10   am
   177     3     2    1
   178    91    90    1
   179    91    92    2
   180     5     2    1
   181     2     1    1
