@<TRIPOS>MOLECULE
tmp/2djlB01.pdb
 104 97 0 0 0
SMALL
GASTEIGER

@<TRIPOS>ATOM
      1  N        -14.8990   24.2630   78.8170 N.3    20  ALA20      -0.1231
      2  CA       -14.8170   22.9770   78.1250 C.3    20  ALA20       0.1694
      3  C        -13.5200   22.2830   78.4890 C.2    20  ALA20       0.2592
      4  O        -12.4690   22.9300   78.6160 O.2    20  ALA20      -0.2718
      5  CB       -14.9470   23.1370   76.6110 C.3    20  ALA20       0.0304
      6  N        -13.6150   20.9750   78.6910 N.am   21  GLY21      -0.1957
      7  CA       -12.4590   20.1840   79.0770 C.3    21  GLY21       0.1869
      8  C        -12.3080   19.9040   80.5580 C.2    21  GLY21       0.2309
      9  O        -11.6580   18.9350   80.9360 O.2    21  GLY21      -0.2863
     10  N        -16.6380   17.8690   77.1430 N.3    44  LYS44      -0.1231
     11  CA       -15.2630   17.8590   76.6410 C.3    44  LYS44       0.1693
     12  C        -15.2330   17.9640   75.1180 C.2    44  LYS44       0.2592
     13  O        -15.9770   17.2620   74.4350 O.2    44  LYS44      -0.2718
     14  CB       -14.5770   16.5550   77.0740 C.3    44  LYS44       0.0285
     15  CG       -13.2260   16.2810   76.4200 C.3    44  LYS44       0.0035
     16  CD       -12.1540   17.2520   76.8950 C.3    44  LYS44       0.0206
     17  CE       -10.8910   17.1650   76.0600 C.3    44  LYS44       0.1093
     18  NZ        -9.8970   18.2000   76.5130 N.3    44  LYS44      -0.1314
     19  N        -14.3710   18.8240   74.5780 N.am   45  SER45      -0.1952
     20  CA       -14.1930   18.8940   73.1230 C.3    45  SER45       0.1924
     21  C        -13.9200   17.5110   72.5620 C.2    45  SER45       0.2314
     22  O        -12.9910   16.8230   72.9950 O.2    45  SER45      -0.2863
     23  CB       -13.0440   19.8200   72.7550 C.3    45  SER45       0.2116
     24  OG       -13.3990   21.1740   72.9490 O.3    45  SER45      -0.2180
     25  N         -1.3270   22.9000   80.6220 N.3    68  ASN68      -0.1240
     26  CA        -1.7390   21.5740   80.1900 C.3    68  ASN68       0.1653
     27  C         -1.3990   21.3270   78.7380 C.2    68  ASN68       0.2266
     28  O         -1.3270   22.2570   77.9340 O.2    68  ASN68      -0.2867
     29  CB        -3.2480   21.3440   80.4230 C.3    68  ASN68       0.1155
     30  CG        -4.1000   21.8100   79.2580 C.2    68  ASN68       0.2627
     31  OD1       -4.2670   21.0860   78.2680 O.2    68  ASN68      -0.2716
     32  ND2       -4.6300   23.0230   79.3580 N.am   68  ASN68      -0.0877
     33  N         -3.2990   18.4150   77.1520 N.3    70  MET70      -0.1230
     34  CA        -4.1000   17.1950   77.2590 C.3    70  MET70       0.1702
     35  C         -4.0910   16.4100   75.9520 C.2    70  MET70       0.2593
     36  O         -3.9060   15.1950   75.9550 O.2    70  MET70      -0.2718
     37  CB        -5.5470   17.4980   77.6680 C.3    70  MET70       0.0401
     38  CG        -5.7220   18.2550   78.9860 C.3    70  MET70       0.0596
     39  SD        -4.9670   17.4780   80.4340 S.3    70  MET70      -0.1393
     40  CE        -6.0130   16.0310   80.6250 C.3    70  MET70       0.0692
     41  N         -4.2840   17.1130   74.8390 N.am   71  GLY71      -0.1942
     42  CA        -4.2790   16.4750   73.5200 C.3    71  GLY71       0.2014
     43  C         -5.6190   15.8990   73.1050 C.2    71  GLY71       0.2638
     44  O         -5.6800   14.9080   72.3760 O.2    71  GLY71      -0.2714
     45  N         -6.6940   16.5320   73.5690 N.am   72  LEU72      -0.1977
     46  CA        -8.0680   16.1120   73.2610 C.3    72  LEU72       0.1596
     47  C         -8.3770   14.6480   73.6100 C.2    72  LEU72       0.2287
     48  O         -8.9790   13.9330   72.8010 O.2    72  LEU72      -0.2864
     49  CB        -8.4370   16.4290   71.8010 C.3    72  LEU72       0.0297
     50  CG        -8.4600   17.9040   71.3990 C.3    72  LEU72       0.0022
     51  CD1       -8.6320   18.0230   69.8900 C.3    72  LEU72       0.0001
     52  CD2       -9.5600   18.6630   72.1260 C.3    72  LEU72       0.0001
     53  N        -14.8690   24.4370   68.6910 N.3   128  ASN128     -0.1240
     54  CA       -13.5450   24.7890   69.2010 C.3   128  ASN128      0.1653
     55  C        -12.5620   25.0540   68.0660 C.2   128  ASN128      0.2266
     56  O        -12.1330   24.1310   67.3710 O.2   128  ASN128     -0.2867
     57  CB       -13.0330   23.6760   70.1230 C.3   128  ASN128      0.1155
     58  CG       -11.7110   24.0110   70.8060 C.2   128  ASN128      0.2627
     59  OD1      -11.1260   25.0770   70.6020 O.2   128  ASN128     -0.2716
     60  ND2      -11.2470   23.0930   71.6480 N.am  128  ASN128     -0.0877
     61  N         -7.7980   24.8610   69.8980 N.3   131  CYS131     -0.1221
     62  CA        -7.0040   23.8570   70.6050 C.3   131  CYS131      0.1794
     63  C         -5.5220   24.0890   70.3160 C.2   131  CYS131      0.2443
     64  O         -5.1130   24.0600   69.1570 O.2   131  CYS131     -0.2733
     65  CB        -7.3980   22.4510   70.1740 C.3   131  CYS131      0.0970
     66  SG        -6.3920   21.1690   70.9480 S.3   131  CYS131     -0.0800
     67  N         -4.7160   24.3530   71.3640 N.am  132  PRO132     -0.2718
     68  CA        -3.2930   24.6370   71.1850 C.3   132  PRO132      0.1535
     69  C         -2.3480   23.4690   71.5120 C.2   132  PRO132      0.2598
     70  O         -1.1360   23.6820   71.6290 O.2   132  PRO132     -0.2715
     71  CB        -3.0690   25.7620   72.1920 C.3   132  PRO132      0.0310
     72  CG        -3.9640   25.3340   73.3700 C.3   132  PRO132      0.0237
     73  CD        -5.1120   24.5110   72.7800 C.3   132  PRO132      0.0939
     74  N         -2.8910   22.2570   71.6510 N.am  133  ASN133     -0.1973
     75  CA        -2.1270   21.1450   72.2310 C.3   133  ASN133      0.1688
     76  C         -1.9350   19.8790   71.4000 C.2   133  ASN133      0.2292
     77  O         -1.2790   18.9450   71.8660 O.2   133  ASN133     -0.2864
     78  CB        -2.7350   20.7250   73.5720 C.3   133  ASN133      0.1181
     79  CG        -2.7320   21.8350   74.5900 C.2   133  ASN133      0.2629
     80  OD1       -1.7910   22.6340   74.6730 O.2   133  ASN133     -0.2716
     81  ND2       -3.7830   21.8820   75.3950 N.am  133  ASN133     -0.0877
     82  N        -15.4020   28.8170   70.2300 N.3   165  LYS165     -0.1245
     83  CA       -14.3930   28.9910   71.2690 C.3   165  LYS165      0.1561
     84  C        -13.1430   29.5610   70.6090 C.2   165  LYS165      0.2260
     85  O        -12.5180   28.9080   69.7590 O.2   165  LYS165     -0.2867
     86  CB       -14.0920   27.6460   71.9380 C.3   165  LYS165      0.0271
     87  CG       -13.0640   27.7000   73.0790 C.3   165  LYS165      0.0035
     88  CD       -13.6340   28.3910   74.3080 C.3   165  LYS165      0.0206
     89  CE       -12.7350   28.2240   75.5200 C.3   165  LYS165      0.1093
     90  NZ       -12.7790   26.8300   76.0640 N.3   165  LYS165     -0.1314
     91  N         -9.9630   30.5280   75.0220 N.3   195  ASN195     -0.1225
     92  CA        -9.2010   29.3110   75.2650 C.3   195  ASN195      0.1785
     93  C         -7.8600   29.6600   75.9250 C.2   195  ASN195      0.2597
     94  O         -7.5480   30.8350   76.1410 O.2   195  ASN195     -0.2718
     95  CB        -8.9790   28.5640   73.9410 C.3   195  ASN195      0.1169
     96  CG        -9.0010   27.0490   74.0980 C.2   195  ASN195      0.2627
     97  OD1       -8.3710   26.4940   75.0010 O.2   195  ASN195     -0.2716
     98  ND2       -9.7190   26.3670   73.2080 N.am  195  ASN195     -0.0877
     99  N         -7.0750   28.6390   76.2510 N.am  196  SER196     -0.1952
    100  CA        -5.8030   28.8430   76.9410 C.3   196  SER196      0.1924
    101  C         -4.8880   29.7850   76.1820 C.2   196  SER196      0.2314
    102  O         -4.9210   29.8560   74.9480 O.2   196  SER196     -0.2863
    103  CB        -5.0740   27.5120   77.1090 C.3   196  SER196      0.2116
    104  OG        -5.9050   26.5450   77.7200 O.3   196  SER196     -0.2180
@<TRIPOS>BOND
     1    56    55    2
     2    55    54    1
     3    53    54    1
     4    64    63    2
     5    54    57    1
     6    85    84    2
     7    51    50    1
     8    61    62    1
     9    57    58    1
    10    65    62    1
    11    65    66    1
    12    82    83    1
    13    63    62    1
    14    63    67   am
    15    59    58    2
    16    84    83    1
    17    58    60   am
    18    68    67    1
    19    68    69    1
    20    68    71    1
    21    83    86    1
    22    67    73    1
    23    50    49    1
    24    50    52    1
    25    76    77    2
    26    76    75    1
    27    69    70    2
    28    69    74   am
    29    74    75    1
    30    49    46    1
    31    86    87    1
    32    71    72    1
    33    75    78    1
    34    44    43    2
    35    21    22    2
    36    21    20    1
    37    23    24    1
    38    23    20    1
    39    73    72    1
    40    48    47    2
    41    87    88    1
    42    43    42    1
    43    43    45   am
    44    20    19    1
    45    98    96   am
    46    46    45    1
    47    46    47    1
    48    42    41    1
    49    78    79    1
    50    95    96    1
    51    95    92    1
    52    96    97    2
    53    88    89    1
    54    13    12    2
    55    19    12   am
    56    79    80    2
    57    79    81   am
    58    41    35   am
    59   102   101    2
    60    91    92    1
    61    12    11    1
    62    92    93    1
    63    89    90    1
    64    93    94    2
    65    93    99   am
    66    35    36    2
    67    35    34    1
    68    17    18    1
    69    17    16    1
    70   101   100    1
    71    99   100    1
    72    15    16    1
    73    15    14    1
    74     5     2    1
    75    11    14    1
    76    11    10    1
    77   100   103    1
    78   103   104    1
    79    33    34    1
    80    34    37    1
    81    37    38    1
    82    28    27    2
    83     2     3    1
    84     2     1    1
    85    31    30    2
    86     3     4    2
    87     3     6   am
    88     6     7    1
    89    27    26    1
    90    38    39    1
    91     7     8    1
    92    30    32   am
    93    30    29    1
    94    26    29    1
    95    26    25    1
    96    39    40    1
    97     8     9    2
