@<TRIPOS>MOLECULE
tmp/2dkhA01.pdb
 97 89 0 0 0
SMALL
GASTEIGER

@<TRIPOS>ATOM
      1  N         18.0290   44.3650   30.0480 N.3    75  ASP75      -0.1225
      2  CA        18.4810   45.2390   31.1270 C.3    75  ASP75       0.1805
      3  C         19.8540   45.8710   30.9100 C.2    75  ASP75       0.2598
      4  O         20.2290   46.7850   31.6410 O.2    75  ASP75      -0.2718
      5  CB        18.4780   44.4890   32.4650 C.3    75  ASP75       0.1424
      6  CG        19.3630   43.2600   32.4470 C.2    75  ASP75       0.3668
      7  OD1       20.3140   43.2220   31.6390 O.co2  75  ASP75      -0.2456
      8  OD2       19.1150   42.3360   33.2570 O.co2  75  ASP75      -0.2456
      9  N         20.5970   45.4050   29.9100 N.am   76  GLY76      -0.1957
     10  CA        21.9230   45.9610   29.6640 C.3    76  GLY76       0.1869
     11  C         21.9130   47.2790   28.9020 C.2    76  GLY76       0.2309
     12  O         21.3320   47.3660   27.8300 O.2    76  GLY76      -0.2863
     13  N         28.9590   51.5910   31.7420 N.3   135  HIS135     -0.1241
     14  CA        28.0480   50.5780   31.2460 C.3   135  HIS135      0.1621
     15  C         27.1590   50.3750   32.4740 C.2   135  HIS135      0.2264
     16  O         27.6810   50.2860   33.5860 O.2   135  HIS135     -0.2867
     17  CB        28.8740   49.3290   30.9600 C.3   135  HIS135      0.0745
     18  CG        28.0740   48.0840   30.7640 C.ar  135  HIS135      0.0817
     19  ND1       28.6590   46.8350   30.7800 N.ar  135  HIS135     -0.2268
     20  CD2       26.7540   47.8820   30.5510 C.ar  135  HIS135      0.1154
     21  CE1       27.7310   45.9170   30.5910 C.ar  135  HIS135      0.1986
     22  NE2       26.5660   46.5240   30.4480 N.ar  135  HIS135     -0.2212
     23  N         23.1760   48.7150   34.2330 N.3   137  ILE137     -0.1245
     24  CA        22.0860   47.7480   34.1380 C.3   137  ILE137      0.1561
     25  C         20.7980   48.3480   34.6860 C.2   137  ILE137      0.2260
     26  O         20.7600   48.8350   35.8210 O.2   137  ILE137     -0.2867
     27  CB        22.3930   46.4820   34.9670 C.3   137  ILE137      0.0252
     28  CG1       23.7550   45.9030   34.5660 C.3   137  ILE137      0.0019
     29  CG2       21.2400   45.4750   34.8330 C.3   137  ILE137      0.0019
     30  CD1       23.8480   45.4070   33.1400 C.3   137  ILE137      0.0001
     31  N         29.2650   41.8780   37.6530 N.3   247  LYS247     -0.1245
     32  CA        28.7660   41.0970   36.5250 C.3   247  LYS247      0.1561
     33  C         29.7530   39.9410   36.6440 C.2   247  LYS247      0.2260
     34  O         30.9590   40.1830   36.7570 O.2   247  LYS247     -0.2867
     35  CB        28.9790   41.7960   35.1860 C.3   247  LYS247      0.0271
     36  CG        28.7130   40.8710   33.9970 C.3   247  LYS247      0.0035
     37  CD        28.8110   41.6250   32.6740 C.3   247  LYS247      0.0206
     38  CE        28.6210   40.6920   31.4770 C.3   247  LYS247      0.1093
     39  NZ        28.7200   41.4540   30.1840 N.3   247  LYS247     -0.1314
     40  N         25.7440   33.2450   34.1880 N.3   258  LEU258     -0.1245
     41  CA        26.2120   34.6210   34.0530 C.3   258  LEU258      0.1561
     42  C         25.3680   35.3960   35.0590 C.2   258  LEU258      0.2260
     43  O         24.1390   35.2900   35.0490 O.2   258  LEU258     -0.2867
     44  CB        25.9570   35.1690   32.6430 C.3   258  LEU258      0.0270
     45  CG        26.3290   36.6510   32.4620 C.3   258  LEU258      0.0019
     46  CD1       27.8470   36.7910   32.4980 C.3   258  LEU258      0.0001
     47  CD2       25.7880   37.1820   31.1430 C.3   258  LEU258      0.0001
     48  N         24.1430   39.0240   36.4690 N.3   260  ILE260     -0.1245
     49  CA        24.0360   40.4440   36.1080 C.3   260  ILE260      0.1561
     50  C         23.3930   41.1300   37.3120 C.2   260  ILE260      0.2260
     51  O         22.2230   40.9040   37.6030 O.2   260  ILE260     -0.2867
     52  CB        23.1340   40.6580   34.8600 C.3   260  ILE260      0.0252
     53  CG1       23.7780   40.0150   33.6240 C.3   260  ILE260      0.0019
     54  CG2       22.8930   42.1570   34.6240 C.3   260  ILE260      0.0019
     55  CD1       25.0490   40.7000   33.1500 C.3   260  ILE260      0.0001
     56  N         20.0720   39.2190   38.4050 N.3   269  ARG269     -0.1245
     57  CA        19.6120   38.3950   37.3050 C.3   269  ARG269      0.1563
     58  C         20.6090   37.2760   37.0740 C.2   269  ARG269      0.2260
     59  O         21.8220   37.5000   37.0620 O.2   269  ARG269     -0.2867
     60  CB        19.4710   39.2230   36.0240 C.3   269  ARG269      0.0307
     61  CG        19.3430   38.3670   34.7620 C.3   269  ARG269      0.0489
     62  CD        18.9080   39.1960   33.5620 C.3   269  ARG269      0.2205
     63  NE        17.5160   39.6180   33.6710 N.pl3 269  ARG269     -0.0865
     64  CZ        16.7980   40.0540   32.6410 C.cat 269  ARG269      0.5346
     65  NH1       15.5350   40.4200   32.8120 N.pl3 269  ARG269      0.1354
     66  NH2       17.3530   40.1140   31.4370 N.pl3 269  ARG269      0.1354
     67  N         21.6060   34.1550   34.4160 N.3   271  TYR271     -0.1241
     68  CA        21.3940   33.5130   33.1270 C.3   271  TYR271      0.1605
     69  C         21.9850   32.1250   33.3700 C.2   271  TYR271      0.2264
     70  O         23.1540   32.0120   33.7270 O.2   271  TYR271     -0.2867
     71  CB        22.1770   34.1880   32.0020 C.3   271  TYR271      0.0534
     72  CG        21.5920   35.4980   31.5320 C.ar  271  TYR271     -0.0201
     73  CD1       21.8960   36.6930   32.1810 C.ar  271  TYR271     -0.0009
     74  CD2       20.7320   35.5420   30.4310 C.ar  271  TYR271     -0.0009
     75  CE1       21.3590   37.8990   31.7470 C.ar  271  TYR271      0.0417
     76  CE2       20.1910   36.7440   29.9860 C.ar  271  TYR271      0.0417
     77  CZ        20.5070   37.9190   30.6470 C.ar  271  TYR271      0.1957
     78  OH        19.9690   39.1130   30.2090 O.3   271  TYR271     -0.2866
     79  N         22.5490   35.6070   22.3320 N.3   345  PRO345     -0.2116
     80  CA        22.7520   36.1270   23.6880 C.3   345  PRO345      0.1372
     81  C         24.2360   36.3970   23.9360 C.2   345  PRO345      0.2244
     82  O         24.5950   37.2550   24.7430 O.2   345  PRO345     -0.2868
     83  CB        22.2150   35.0020   24.5680 C.3   345  PRO345      0.0268
     84  CG        21.1240   34.4170   23.7290 C.3   345  PRO345      0.0207
     85  CD        21.7630   34.3610   22.3590 C.3   345  PRO345      0.0892
     86  N         25.8850   39.9200   23.2850 N.3   348  GLY348     -0.1225
     87  CA        25.8820   40.8910   24.3670 C.3   348  GLY348      0.1811
     88  C         25.3610   42.2640   23.9840 C.2   348  GLY348      0.2280
     89  O         25.6770   43.2550   24.6460 O.2   348  GLY348     -0.2866
     90  N         20.4090   47.3810   22.9380 N.3   352  ASN352     -0.1240
     91  CA        21.2480   48.4990   22.5050 C.3   352  ASN352      0.1653
     92  C         21.3450   48.7360   21.0020 C.2   352  ASN352      0.2266
     93  O         21.1970   49.8740   20.5230 O.2   352  ASN352     -0.2867
     94  CB        22.6530   48.3170   23.0810 C.3   352  ASN352      0.1155
     95  CG        22.6550   48.3540   24.5840 C.2   352  ASN352      0.2627
     96  OD1       22.4820   49.4130   25.1890 O.2   352  ASN352     -0.2716
     97  ND2       22.8260   47.1890   25.2060 N.am  352  ASN352     -0.0877
@<TRIPOS>BOND
     1    93    92    2
     2    92    91    1
     3    79    85    1
     4    79    80    1
     5    85    84    1
     6    91    90    1
     7    91    94    1
     8    94    95    1
     9    86    87    1
    10    80    81    1
    11    80    83    1
    12    84    83    1
    13    81    82    2
    14    88    87    1
    15    88    89    2
    16    95    96    2
    17    95    97   am
    18    12    11    2
    19    11    10    1
    20    10     9    1
    21     9     3   am
    22    76    74   ar
    23    76    77   ar
    24     1     2    1
    25    39    38    1
    26    78    77    1
    27    74    72   ar
    28    22    20   ar
    29    22    21   ar
    30    20    18   ar
    31    21    19   ar
    32    77    75   ar
    33    18    19   ar
    34    18    17    1
    35     3     2    1
    36     3     4    2
    37    17    14    1
    38     2     5    1
    39    47    45    1
    40    14    13    1
    41    14    15    1
    42    66    64    1
    43    38    37    1
    44    72    71    1
    45    72    73   ar
    46     7     6   ar
    47    75    73   ar
    48    71    68    1
    49     6     5    1
    50     6     8   ar
    51    45    46    1
    52    45    44    1
    53    15    16    2
    54    64    65    1
    55    64    63    2
    56    44    41    1
    57    37    36    1
    58    68    69    1
    59    68    67    1
    60    30    28    1
    61    55    53    1
    62    69    70    2
    63    62    63    1
    64    62    61    1
    65    53    52    1
    66    36    35    1
    67    41    40    1
    68    41    42    1
    69    24    23    1
    70    24    25    1
    71    24    27    1
    72    28    27    1
    73    54    52    1
    74    25    26    2
    75    61    60    1
    76    29    27    1
    77    52    49    1
    78    43    42    2
    79    35    32    1
    80    60    57    1
    81    49    48    1
    82    49    50    1
    83    32    33    1
    84    32    31    1
    85    33    34    2
    86    59    58    2
    87    58    57    1
    88    57    56    1
    89    50    51    2
