@<TRIPOS>MOLECULE
tmp/2dkjA00.pdb
 122 116 0 0 0
SMALL
GASTEIGER

@<TRIPOS>ATOM
      1  N          5.7320    6.5870   27.7550 N.3    88  SER88      -0.1202
      2  CA         5.1000    5.4270   28.3670 C.3    88  SER88       0.2020
      3  C          5.7300    5.1780   29.7220 C.2    88  SER88       0.2619
      4  O          6.7080    5.8250   30.0850 O.2    88  SER88      -0.2717
      5  CB         5.3460    4.1970   27.4950 C.3    88  SER88       0.2103
      6  OG         6.7250    3.8580   27.5080 O.3    88  SER88      -0.2182
      7  N          5.1710    4.2280   30.4630 N.am   89  GLY89      -0.1942
      8  CA         5.7410    3.8890   31.7510 C.3    89  GLY89       0.2014
      9  C          7.1250    3.2940   31.5410 C.2    89  GLY89       0.2639
     10  O          8.0310    3.5040   32.3520 O.2    89  GLY89      -0.2714
     11  N          7.2960    2.5550   30.4470 N.am   90  SER90      -0.1949
     12  CA         8.5830    1.9420   30.1430 C.3    90  SER90       0.1924
     13  C          9.6620    2.9990   29.9140 C.2    90  SER90       0.2314
     14  O         10.7930    2.8470   30.3730 O.2    90  SER90      -0.2863
     15  CB         8.4640    1.0300   28.9170 C.3    90  SER90       0.2116
     16  OG         7.6380   -0.0870   29.2060 O.3    90  SER90      -0.2180
     17  N         10.7230    4.5880   33.2460 N.3    93  ASN93      -0.1240
     18  CA        11.6820    3.7480   33.9500 C.3    93  ASN93       0.1653
     19  C         13.0470    3.7540   33.2770 C.2    93  ASN93       0.2266
     20  O         14.0770    3.8180   33.9450 O.2    93  ASN93      -0.2867
     21  CB        11.1580    2.3150   34.0650 C.3    93  ASN93       0.1155
     22  CG        10.0700    2.1820   35.1070 C.2    93  ASN93       0.2627
     23  OD1        9.9060    3.0590   35.9540 O.2    93  ASN93      -0.2716
     24  ND2        9.3350    1.0760   35.0690 N.am   93  ASN93      -0.0877
     25  N          7.1150   -6.1190   37.1860 N.3   117  HIS117     -0.1241
     26  CA         6.8890   -5.7530   35.7960 C.3   117  HIS117      0.1621
     27  C          8.1110   -6.1050   34.9510 C.2   117  HIS117      0.2264
     28  O          9.2150   -6.2540   35.4760 O.2   117  HIS117     -0.2867
     29  CB         6.5920   -4.2560   35.6910 C.3   117  HIS117      0.0745
     30  CG         6.2040   -3.8180   34.3150 C.ar  117  HIS117      0.0817
     31  ND1        7.1230   -3.3970   33.3770 N.ar  117  HIS117     -0.2268
     32  CD2        4.9970   -3.7840   33.7010 C.ar  117  HIS117      0.1154
     33  CE1        6.4980   -3.1240   32.2450 C.ar  117  HIS117      0.1986
     34  NE2        5.2080   -3.3500   32.4150 N.ar  117  HIS117     -0.2212
     35  N          9.8920   -4.3500   33.1270 N.3   119  THR119     -0.1203
     36  CA        10.9460   -3.3510   33.2590 C.3   119  THR119      0.1994
     37  C         11.6400   -3.3550   34.6140 C.2   119  THR119      0.2617
     38  O         12.4720   -2.4900   34.8900 O.2   119  THR119     -0.2717
     39  CB        10.4090   -1.9300   32.9880 C.3   119  THR119      0.1784
     40  OG1        9.3980   -1.6040   33.9500 O.3   119  THR119     -0.2211
     41  CG2        9.8290   -1.8410   31.5830 C.3   119  THR119      0.0376
     42  N         11.3010   -4.3250   35.4580 N.am  120  HIS120     -0.1975
     43  CA        11.9220   -4.4260   36.7710 C.3   120  HIS120      0.1656
     44  C         13.0560   -5.4580   36.7700 C.2   120  HIS120      0.2291
     45  O         13.4670   -5.9320   37.8340 O.2   120  HIS120     -0.2864
     46  CB        10.8890   -4.8030   37.8400 C.3   120  HIS120      0.0771
     47  CG         9.7950   -3.7950   38.0320 C.ar  120  HIS120      0.0820
     48  ND1        9.8270   -2.5230   37.4990 N.ar  120  HIS120     -0.2267
     49  CD2        8.6400   -3.8770   38.7340 C.ar  120  HIS120      0.1154
     50  CE1        8.7390   -1.8670   37.8660 C.ar  120  HIS120      0.1986
     51  NE2        8.0030   -2.6660   38.6160 N.ar  120  HIS120     -0.2212
     52  N          4.9670   -2.8690   41.6580 N.3   166  ALA166     -0.1231
     53  CA         4.7820   -4.0370   40.8160 C.3   166  ALA166      0.1694
     54  C          3.5090   -3.9190   40.0020 C.2   166  ALA166      0.2592
     55  O          2.7390   -2.9700   40.1620 O.2   166  ALA166     -0.2718
     56  CB         4.7310   -5.2930   41.6820 C.3   166  ALA166      0.0304
     57  N          3.2930   -4.9030   39.1370 N.am  167  SER167     -0.1952
     58  CA         2.1170   -4.9290   38.2820 C.3   167  SER167      0.1924
     59  C          1.0550   -5.9070   38.7770 C.2   167  SER167      0.2314
     60  O         -0.0990   -5.8230   38.3630 O.2   167  SER167     -0.2863
     61  CB         2.5150   -5.2990   36.8520 C.3   167  SER167      0.2116
     62  OG         3.4570   -4.3800   36.3310 O.3   167  SER167     -0.2180
     63  N          7.9830    2.4810   41.4080 N.3   192  ASP192     -0.1239
     64  CA         7.1950    2.4760   40.1840 C.3   192  ASP192      0.1674
     65  C          5.7610    2.2890   40.6650 C.2   192  ASP192      0.2266
     66  O          5.3360    1.1730   40.9670 O.2   192  ASP192     -0.2867
     67  CB         7.6100    1.3060   39.2960 C.3   192  ASP192      0.1410
     68  CG         6.8760    1.2890   37.9730 C.2   192  ASP192      0.3668
     69  OD1        5.8670    2.0130   37.8210 O.co2 192  ASP192     -0.2456
     70  OD2        7.3130    0.5330   37.0840 O.co2 192  ASP192     -0.2456
     71  N          3.0010    2.9080   38.9320 N.3   194  ALA194     -0.1231
     72  CA         2.0710    2.8390   37.8100 C.3   194  ALA194      0.1694
     73  C          0.7000    2.2510   38.1250 C.2   194  ALA194      0.2592
     74  O         -0.3260    2.8820   37.8710 O.2   194  ALA194     -0.2718
     75  CB         2.7030    2.0740   36.6650 C.3   194  ALA194      0.0304
     76  N          0.6620    1.0460   38.6780 N.am  195  HIS195     -0.1976
     77  CA        -0.6280    0.4390   38.9510 C.3   195  HIS195      0.1656
     78  C         -1.5090    1.1540   39.9600 C.2   195  HIS195      0.2291
     79  O         -2.7160    1.2880   39.7450 O.2   195  HIS195     -0.2864
     80  CB        -0.4550   -1.0140   39.3850 C.3   195  HIS195      0.0771
     81  CG        -0.9320   -1.9940   38.3640 C.ar  195  HIS195      0.0820
     82  ND1       -0.1530   -2.4210   37.3100 N.ar  195  HIS195     -0.2267
     83  CD2       -2.1430   -2.5740   38.1950 C.ar  195  HIS195      0.1154
     84  CE1       -0.8640   -3.2220   36.5380 C.ar  195  HIS195      0.1986
     85  NE2       -2.0760   -3.3310   37.0520 N.ar  195  HIS195     -0.2212
     86  N          2.7490    5.4310   35.1150 N.3   218  THR218     -0.1218
     87  CA         2.0530    5.5570   33.8500 C.3   218  THR218      0.1862
     88  C          0.9850    6.5900   34.2110 C.2   218  THR218      0.2287
     89  O          0.7200    6.8220   35.3990 O.2   218  THR218     -0.2866
     90  CB         1.3330    4.2550   33.4440 C.3   218  THR218      0.1770
     91  OG1        0.6350    3.7150   34.5750 O.3   218  THR218     -0.2211
     92  CG2        2.3210    3.2380   32.9220 C.3   218  THR218      0.0375
     93  N         -1.9770    6.3050   32.6940 N.3   220  HIS220     -0.1226
     94  CA        -3.1700    5.4880   32.5200 C.3   220  HIS220      0.1752
     95  C         -3.1350    4.4990   33.6950 C.2   220  HIS220      0.2595
     96  O         -2.2170    4.5590   34.5230 O.2   220  HIS220     -0.2718
     97  CB        -3.1560    4.7580   31.1670 C.3   220  HIS220      0.0759
     98  CG        -1.8430    4.1290   30.8280 C.ar  220  HIS220      0.0818
     99  ND1       -1.6630    2.7640   30.7400 N.ar  220  HIS220     -0.2268
    100  CD2       -0.6450    4.6870   30.5410 C.ar  220  HIS220      0.1154
    101  CE1       -0.4080    2.5120   30.4120 C.ar  220  HIS220      0.1986
    102  NE2        0.2300    3.6620   30.2850 N.ar  220  HIS220     -0.2212
    103  N         -4.1170    3.6010   33.7450 N.am  221  LYS221     -0.1980
    104  CA        -4.3160    2.5980   34.8050 C.3   221  LYS221      0.1596
    105  C         -5.2180    3.2280   35.8770 C.2   221  LYS221      0.2287
    106  O         -6.2100    3.8560   35.5120 O.2   221  LYS221     -0.2864
    107  CB        -2.9830    2.0700   35.3650 C.3   221  LYS221      0.0298
    108  CG        -2.1880    1.3130   34.2960 C.3   221  LYS221      0.0038
    109  CD        -0.9770    0.5630   34.8210 C.3   221  LYS221      0.0206
    110  CE        -0.2940   -0.1870   33.6750 C.3   221  LYS221      0.1093
    111  NZ         1.0450   -0.5600   34.1110 N.3   221  LYS221     -0.1314
    112  N         -2.6760    7.2770   27.7620 N.3   227  ARG227     -0.1245
    113  CA        -1.5840    6.3150   27.7800 C.3   227  ARG227      0.1563
    114  C         -0.2640    7.0790   27.6540 C.2   227  ARG227      0.2260
    115  O         -0.0240    7.7660   26.6580 O.2   227  ARG227     -0.2867
    116  CB        -1.7720    5.3250   26.6280 C.3   227  ARG227      0.0307
    117  CG        -0.9860    4.0290   26.7440 C.3   227  ARG227      0.0489
    118  CD        -1.5610    2.9610   25.8100 C.3   227  ARG227      0.2205
    119  NE        -2.8240    2.4090   26.2990 N.pl3 227  ARG227     -0.0865
    120  CZ        -2.9190    1.4560   27.2210 C.cat 227  ARG227      0.5346
    121  NH1       -4.1100    1.0200   27.6070 N.pl3 227  ARG227      0.1354
    122  NH2       -1.8230    0.9230   27.7470 N.pl3 227  ARG227      0.1354
@<TRIPOS>BOND
     1   118   119    1
     2   118   117    1
     3   119   120    2
     4   116   117    1
     5   116   113    1
     6   115   114    2
     7   120   121    1
     8   120   122    1
     9     5     6    1
    10     5     2    1
    11   114   113    1
    12     1     2    1
    13   112   113    1
    14     2     3    1
    15    15    16    1
    16    15    12    1
    17     3     4    2
    18     3     7   am
    19    13    12    1
    20    13    14    2
    21    12    11    1
    22   102   101   ar
    23   102   100   ar
    24   101    99   ar
    25    11     9   am
    26     7     8    1
    27   100    98   ar
    28    99    98   ar
    29    98    97    1
    30    97    94    1
    31     9     8    1
    32     9    10    2
    33    41    39    1
    34    33    34   ar
    35    33    31   ar
    36    34    32   ar
    37    94    93    1
    38    94    95    1
    39    92    90    1
    40    39    36    1
    41    39    40    1
    42    35    36    1
    43    17    18    1
    44    36    37    1
    45    19    20    2
    46    19    18    1
    47    31    30   ar
    48    90    87    1
    49    90    91    1
    50   110   111    1
    51   110   109    1
    52    95   103   am
    53    95    96    2
    54    32    30   ar
    55   103   104    1
    56    87    88    1
    57    87    86    1
    58    18    21    1
    59    21    22    1
    60    88    89    2
    61   108   109    1
    62   108   107    1
    63    30    29    1
    64    37    38    2
    65    37    42   am
    66   104   107    1
    67   104   105    1
    68    27    28    2
    69    27    26    1
    70    24    22   am
    71    22    23    2
    72    42    43    1
    73   106   105    2
    74    29    26    1
    75    26    25    1
    76    62    61    1
    77    84    85   ar
    78    84    82   ar
    79    75    72    1
    80    44    43    1
    81    44    45    2
    82    43    46    1
    83    61    58    1
    84    85    83   ar
    85    70    68   ar
    86    82    81   ar
    87    48    50   ar
    88    48    47   ar
    89    72    73    1
    90    72    71    1
    91    69    68   ar
    92    46    47    1
    93    50    51   ar
    94    74    73    2
    95    68    67    1
    96    47    49   ar
    97    73    76   am
    98    83    81   ar
    99    58    59    1
   100    58    57    1
   101    60    59    2
   102    81    80    1
   103    51    49   ar
   104    76    77    1
   105    77    80    1
   106    77    78    1
   107    57    54   am
   108    67    64    1
   109    79    78    2
   110    54    55    2
   111    54    53    1
   112    64    65    1
   113    64    63    1
   114    65    66    2
   115    53    52    1
   116    53    56    1
