@<TRIPOS>MOLECULE
tmp/2dkvA00.pdb
 110 108 0 0 0
SMALL
GASTEIGER

@<TRIPOS>ATOM
      1  N         19.7540   -4.1310   23.5750 N.3   110  GLU110     -0.1245
      2  CA        18.7250   -5.0310   23.0110 C.3   110  GLU110      0.1567
      3  C         19.2560   -6.3230   22.3920 C.2   110  GLU110      0.2260
      4  O         18.5290   -7.3080   22.2720 O.2   110  GLU110     -0.2867
      5  CB        17.8870   -4.3330   21.9790 C.3   110  GLU110      0.0388
      6  CG        17.0480   -3.1370   22.4900 C.3   110  GLU110      0.1160
      7  CD        16.0870   -3.4730   23.5990 C.2   110  GLU110      0.3649
      8  OE1       15.5750   -4.5880   23.6750 O.co2 110  GLU110     -0.2457
      9  OE2       15.8190   -2.5610   24.3960 O.co2 110  GLU110     -0.2457
     10  N         16.8450   -2.8600   17.4340 N.3   160  ILE160     -0.1231
     11  CA        15.8790   -2.4420   18.4390 C.3   160  ILE160      0.1692
     12  C         14.9140   -3.5560   18.8410 C.2   160  ILE160      0.2592
     13  O         13.9700   -3.3170   19.6100 O.2   160  ILE160     -0.2718
     14  CB        15.1100   -1.1470   17.9770 C.3   160  ILE160      0.0266
     15  CG1       14.6680   -0.2720   19.2010 C.3   160  ILE160      0.0019
     16  CG2       13.8800   -1.5180   17.0000 C.3   160  ILE160      0.0020
     17  CD1       15.7930    0.1060   20.1960 C.3   160  ILE160      0.0001
     18  N         15.1210   -4.7540   18.3200 N.am  161  GLN161     -0.1966
     19  CA        14.3100   -5.9120   18.6320 C.3   161  GLN161      0.1733
     20  C         12.8380   -5.6000   18.3620 C.2   161  GLN161      0.2616
     21  O         11.9130   -5.7640   19.2080 O.2   161  GLN161     -0.2715
     22  CB        14.6170   -6.4230   20.0300 C.3   161  GLN161      0.0408
     23  CG        15.9120   -7.1930   20.0180 C.3   161  GLN161      0.0908
     24  CD        15.7700   -8.4220   19.1590 C.2   161  GLN161      0.2608
     25  OE1       14.8600   -9.2130   19.3850 O.2   161  GLN161     -0.2717
     26  NE2       16.6090   -8.5630   18.1560 N.am  161  GLN161     -0.0878
     27  N         12.6450   -5.1020   17.1320 N.am  162  LEU162     -0.1963
     28  CA        11.3210   -4.6990   16.6160 C.3   162  LEU162      0.1728
     29  C         10.3960   -5.8950   16.7480 C.2   162  LEU162      0.2617
     30  O         10.7480   -6.9720   16.3350 O.2   162  LEU162     -0.2715
     31  CB        11.4260   -4.2510   15.1600 C.3   162  LEU162      0.0311
     32  CG        10.1330   -3.7390   14.4710 C.3   162  LEU162      0.0022
     33  CD1        9.8660   -2.3380   14.9200 C.3   162  LEU162      0.0001
     34  CD2       10.2610   -3.7910   12.9980 C.3   162  LEU162      0.0001
     35  N          9.2080   -5.6750   17.3220 N.am  163  SER163     -0.1936
     36  CA         8.3000   -6.7230   17.7430 C.3   163  SER163      0.2055
     37  C          6.8150   -6.2900   17.4890 C.2   163  SER163      0.2643
     38  O          6.4770   -5.1040   17.5920 O.2   163  SER163     -0.2714
     39  CB         8.4980   -7.0210   19.2550 C.3   163  SER163      0.2130
     40  OG         9.8190   -7.4390   19.5970 O.3   163  SER163     -0.2179
     41  N          5.9850   -7.2690   17.1690 N.am  164  PHE164     -0.1973
     42  CA         4.5400   -7.1270   16.9530 C.3   164  PHE164      0.1639
     43  C          4.2070   -6.6390   15.5280 C.2   164  PHE164      0.2290
     44  O          4.8210   -5.7110   14.9900 O.2   164  PHE164     -0.2864
     45  CB         3.8510   -6.1830   17.9580 C.3   164  PHE164      0.0560
     46  CG         3.9060   -6.6020   19.3590 C.ar  164  PHE164     -0.0200
     47  CD1        2.9150   -7.4360   19.8680 C.ar  164  PHE164     -0.0042
     48  CD2        4.8630   -6.0750   20.2300 C.ar  164  PHE164     -0.0042
     49  CE1        2.9120   -7.7820   21.1550 C.ar  164  PHE164     -0.0003
     50  CE2        4.8770   -6.4420   21.5650 C.ar  164  PHE164     -0.0003
     51  CZ         3.9180   -7.3060   22.0390 C.ar  164  PHE164     -0.0000
     52  N          3.9590   -2.8380   14.9110 N.3   167  ASN167     -0.1240
     53  CA         5.2080   -2.1050   14.7680 C.3   167  ASN167      0.1653
     54  C          5.9330   -2.4250   13.4480 C.2   167  ASN167      0.2266
     55  O          6.4510   -1.5360   12.8010 O.2   167  ASN167     -0.2867
     56  CB         6.1160   -2.4040   15.9740 C.3   167  ASN167      0.1155
     57  CG         5.5580   -1.8130   17.2390 C.2   167  ASN167      0.2627
     58  OD1        5.0300   -0.7250   17.1650 O.2   167  ASN167     -0.2716
     59  ND2        5.6300   -2.5240   18.3830 N.am  167  ASN167     -0.0877
     60  N         14.2060    3.9300   12.3770 N.3   199  TRP199     -0.1227
     61  CA        12.8140    4.3480   12.2980 C.3   199  TRP199      0.1737
     62  C         12.2840    4.5060   13.7340 C.2   199  TRP199      0.2595
     63  O         11.6790    5.5120   14.0960 O.2   199  TRP199     -0.2718
     64  CB        11.9390    3.3360   11.5440 C.3   199  TRP199      0.0564
     65  CG        10.5180    3.4890   11.8320 C.ar  199  TRP199      0.0003
     66  CD1        9.6800    4.3800   11.2240 C.ar  199  TRP199      0.0946
     67  CD2        9.6840    2.7560   12.7990 C.ar  199  TRP199      0.0152
     68  NE1        8.4300    4.2790   11.7610 N.ar  199  TRP199     -0.2442
     69  CE2        8.3960    3.2930   12.7130 C.ar  199  TRP199      0.0810
     70  CE3        9.9280    1.7410   13.7500 C.ar  199  TRP199      0.0012
     71  CZ2        7.3230    2.8570   13.5350 C.ar  199  TRP199      0.0191
     72  CZ3        8.8610    1.2870   14.5530 C.ar  199  TRP199      0.0001
     73  CH2        7.5670    1.8420   14.4230 C.ar  199  TRP199      0.0015
     74  N         12.5470    3.5060   14.5560 N.am  200  PHE200     -0.1976
     75  CA        12.1430    3.5570   15.9420 C.3   200  PHE200      0.1639
     76  C         12.7210    4.7990   16.6400 C.2   200  PHE200      0.2290
     77  O         11.9560    5.5300   17.3170 O.2   200  PHE200     -0.2864
     78  CB        12.4940    2.2950   16.7170 C.3   200  PHE200      0.0560
     79  CG        11.9920    2.3310   18.1140 C.ar  200  PHE200     -0.0200
     80  CD1       12.7440    2.9310   19.1140 C.ar  200  PHE200     -0.0042
     81  CD2       10.7390    1.7700   18.4410 C.ar  200  PHE200     -0.0042
     82  CE1       12.2470    3.0580   20.4060 C.ar  200  PHE200     -0.0003
     83  CE2       10.2510    1.8680   19.7290 C.ar  200  PHE200     -0.0003
     84  CZ        11.0390    2.5530   20.7340 C.ar  200  PHE200     -0.0000
     85  N         12.1060    3.2480   25.2090 N.3   241  VAL241     -0.1231
     86  CA        12.3330    1.8990   24.6610 C.3   241  VAL241      0.1692
     87  C         11.5930    0.8180   25.4390 C.2   241  VAL241      0.2592
     88  O         10.9450   -0.0820   24.8430 O.2   241  VAL241     -0.2718
     89  CB        13.8470    1.6140   24.5730 C.3   241  VAL241      0.0266
     90  CG1       14.1010    0.1470   24.1690 C.3   241  VAL241      0.0020
     91  CG2       14.4960    2.5750   23.6560 C.3   241  VAL241      0.0020
     92  N         11.6800    0.8330   26.7640 N.am  242  ASN242     -0.1974
     93  CA        11.1100   -0.2570   27.5480 C.3   242  ASN242      0.1688
     94  C         10.6890    0.1370   28.9790 C.2   242  ASN242      0.2292
     95  O         10.7710   -0.6900   29.9010 O.2   242  ASN242     -0.2864
     96  CB        12.0900   -1.4420   27.5980 C.3   242  ASN242      0.1181
     97  CG        11.3940   -2.7750   27.8950 C.2   242  ASN242      0.2629
     98  OD1       10.2410   -2.9810   27.4980 O.2   242  ASN242     -0.2716
     99  ND2       12.1080   -3.7030   28.5410 N.am  242  ASN242     -0.0877
    100  N         22.2060   -0.7220   29.8490 N.3   258  ARG258     -0.1245
    101  CA        22.0470    0.2860   28.8130 C.3   258  ARG258      0.1563
    102  C         22.9790    1.4530   29.0710 C.2   258  ARG258      0.2260
    103  O         23.5880    1.9560   28.1570 O.2   258  ARG258     -0.2867
    104  CB        20.6030    0.8180   28.7600 C.3   258  ARG258      0.0307
    105  CG        19.4980   -0.1790   28.3590 C.3   258  ARG258      0.0489
    106  CD        18.1070    0.4080   28.5550 C.3   258  ARG258      0.2205
    107  NE        17.0440   -0.5880   28.4070 N.pl3 258  ARG258     -0.0865
    108  CZ        16.6260   -1.0750   27.2360 C.cat 258  ARG258      0.5346
    109  NH1       17.1500   -0.6620   26.0770 N.pl3 258  ARG258      0.1354
    110  NH2       15.6560   -1.9550   27.2170 N.pl3 258  ARG258      0.1354
@<TRIPOS>BOND
     1    66    68   ar
     2    66    65   ar
     3    64    65    1
     4    64    61    1
     5    68    69   ar
     6    65    67   ar
     7    61    60    1
     8    61    62    1
     9    69    67   ar
    10    69    71   ar
    11    67    70   ar
    12    55    54    2
    13    34    32    1
    14    54    53    1
    15    71    73   ar
    16    62    63    2
    17    62    74   am
    18    70    72   ar
    19    73    72   ar
    20    32    33    1
    21    32    31    1
    22    74    75    1
    23    53    52    1
    24    53    56    1
    25    44    43    2
    26    31    28    1
    27    43    42    1
    28    75    76    1
    29    75    78    1
    30    56    57    1
    31    30    29    2
    32    28    29    1
    33    28    27    1
    34    76    77    2
    35    78    79    1
    36    29    35   am
    37    42    41    1
    38    42    45    1
    39    16    14    1
    40    27    20   am
    41    58    57    2
    42    41    37   am
    43    57    59   am
    44    35    36    1
    45    10    11    1
    46    37    38    2
    47    37    36    1
    48    36    39    1
    49    45    46    1
    50    14    11    1
    51    14    15    1
    52    79    81   ar
    53    79    80   ar
    54    26    24   am
    55    18    19    1
    56    18    12   am
    57    20    19    1
    58    20    21    2
    59    11    12    1
    60    81    83   ar
    61    19    22    1
    62    12    13    2
    63    80    82   ar
    64    24    25    2
    65    24    23    1
    66    15    17    1
    67    39    40    1
    68    46    47   ar
    69    46    48   ar
    70    83    84   ar
    71    47    49   ar
    72    23    22    1
    73    48    50   ar
    74    82    84   ar
    75    49    51   ar
    76    50    51   ar
    77     5     6    1
    78     5     2    1
    79     4     3    2
    80     3     2    1
    81     6     7    1
    82     2     1    1
    83     7     8   ar
    84     7     9   ar
    85    91    89    1
    86    90    89    1
    87    89    86    1
    88    86    85    1
    89    86    87    1
    90    88    87    2
    91    87    92   am
    92   109   108    1
    93    92    93    1
    94   110   108    1
    95   108   107    2
    96    98    97    2
    97    93    96    1
    98    93    94    1
    99    96    97    1
   100    97    99   am
   101   103   102    2
   102   105   106    1
   103   105   104    1
   104   107   106    1
   105   104   101    1
   106   101   102    1
   107   101   100    1
   108    94    95    2
