@<TRIPOS>MOLECULE
tmp/2dkvA02.pdb
 70 66 0 0 0
SMALL
GASTEIGER

@<TRIPOS>ATOM
      1  N         26.9580   16.8420   19.8850 N.3    95  THR95      -0.1218
      2  CA        25.6030   16.3370   19.9260 C.3    95  THR95       0.1862
      3  C         25.4490   15.1590   18.9310 C.2    95  THR95       0.2287
      4  O         24.7500   14.1870   19.2230 O.2    95  THR95      -0.2866
      5  CB        24.5250   17.4270   19.6290 C.3    95  THR95       0.1770
      6  OG1       24.4030   18.3320   20.7410 O.3    95  THR95      -0.2211
      7  CG2       23.1800   16.7930   19.4660 C.3    95  THR95       0.0375
      8  N         27.0660   12.0990   20.3550 N.3    98  ARG98      -0.1245
      9  CA        26.2300   11.6570   21.4690 C.3    98  ARG98       0.1563
     10  C         24.9680   10.9340   20.9670 C.2    98  ARG98       0.2260
     11  O         24.5340    9.9470   21.5990 O.2    98  ARG98      -0.2867
     12  CB        25.7960   12.8190   22.3650 C.3    98  ARG98       0.0307
     13  CG        25.0320   12.3870   23.6200 C.3    98  ARG98       0.0489
     14  CD        24.8240   13.5100   24.6050 C.3    98  ARG98       0.2205
     15  NE        26.1160   13.9780   25.1080 N.pl3  98  ARG98      -0.0865
     16  CZ        26.7000   15.1280   24.7910 C.cat  98  ARG98       0.5346
     17  NH1       26.0920   16.0590   24.0310 N.pl3  98  ARG98       0.1354
     18  NH2       27.8920   15.3800   25.2920 N.pl3  98  ARG98       0.1354
     19  N         15.0180   13.8220   21.9960 N.3   214  VAL214     -0.1231
     20  CA        15.5620   13.8580   23.3710 C.3   214  VAL214      0.1692
     21  C         17.0770   14.0380   23.3570 C.2   214  VAL214      0.2592
     22  O         17.6170   14.9330   23.9760 O.2   214  VAL214     -0.2718
     23  CB        15.2130   12.5940   24.1870 C.3   214  VAL214      0.0266
     24  CG1       15.8910   12.6170   25.6010 C.3   214  VAL214      0.0020
     25  CG2       13.7020   12.4320   24.3530 C.3   214  VAL214      0.0020
     26  N         17.7830   13.1930   22.6440 N.am  215  ILE215     -0.1966
     27  CA        19.2120   13.2340   22.7070 C.3   215  ILE215      0.1727
     28  C         19.7920   14.4960   22.0820 C.2   215  ILE215      0.2617
     29  O         20.9220   14.8700   22.4270 O.2   215  ILE215     -0.2715
     30  CB        19.8450   11.9830   22.0920 C.3   215  ILE215      0.0290
     31  CG1       21.2570   11.7290   22.6140 C.3   215  ILE215      0.0022
     32  CG2       19.8540   12.0520   20.5570 C.3   215  ILE215      0.0023
     33  CD1       21.3620   11.5010   24.0750 C.3   215  ILE215      0.0001
     34  N         19.0720   15.1140   21.1380 N.am  216  THR216     -0.1937
     35  CA        19.6020   16.3250   20.4830 C.3   216  THR216      0.2028
     36  C         19.1290   17.6430   21.1430 C.2   216  THR216      0.2642
     37  O         19.4160   18.7440   20.6260 O.2   216  THR216     -0.2714
     38  CB        19.2170   16.4010   18.9990 C.3   216  THR216      0.1808
     39  OG1       17.7910   16.4180   18.8790 O.3   216  THR216     -0.2208
     40  CG2       19.8370   15.2400   18.2570 C.3   216  THR216      0.0379
     41  N         18.3780   17.5150   22.2300 N.am  217  GLY217     -0.1954
     42  CA        17.9700   18.6460   23.0670 C.3   217  GLY217      0.1869
     43  C         16.8080   19.3830   22.4470 C.2   217  GLY217      0.2309
     44  O         16.6300   20.5430   22.7140 O.2   217  GLY217     -0.2863
     45  N         15.1160   15.5740   30.4600 N.3   232  PRO232     -0.2102
     46  CA        15.9360   15.1540   29.3190 C.3   232  PRO232      0.1504
     47  C         17.2120   14.4370   29.6950 C.2   232  PRO232      0.2576
     48  O         17.8850   14.8180   30.6480 O.2   232  PRO232     -0.2718
     49  CB        16.2620   16.4710   28.6040 C.3   232  PRO232      0.0282
     50  CG        15.1220   17.3590   28.9720 C.3   232  PRO232      0.0208
     51  CD        14.8860   17.0320   30.4330 C.3   232  PRO232      0.0893
     52  N         17.5400   13.3960   28.9200 N.am  233  GLY233     -0.1957
     53  CA        18.7890   12.7050   29.0640 C.3   233  GLY233      0.1869
     54  C         18.5620   11.2550   28.5780 C.2   233  GLY233      0.2309
     55  O         17.4650   10.9140   28.1550 O.2   233  GLY233     -0.2863
     56  N         28.4780   11.9880   28.6580 N.3   273  THR273     -0.1203
     57  CA        27.1780   11.3410   28.5230 C.3   273  THR273      0.1994
     58  C         26.0210   12.2710   28.7860 C.2   273  THR273      0.2618
     59  O         24.8680   12.0040   28.4170 O.2   273  THR273     -0.2717
     60  CB        27.0600   10.2040   29.5300 C.3   273  THR273      0.1784
     61  OG1       27.3420   10.6960   30.8440 O.3   273  THR273     -0.2211
     62  CG2       28.0260    9.0820   29.2160 C.3   273  THR273      0.0376
     63  N         26.3050   13.3760   29.4800 N.am  274  GLY274     -0.1942
     64  CA        25.2190   14.2310   29.9630 C.3   274  GLY274      0.2014
     65  C         24.6420   13.5610   31.1940 C.2   274  GLY274      0.2639
     66  O         25.1430   12.5010   31.6470 O.2   274  GLY274     -0.2714
     67  N         23.6630   14.2300   31.7840 N.am  275  GLY275     -0.1954
     68  CA        23.0610   13.7930   32.9950 C.3   275  GLY275      0.1869
     69  C         21.6990   13.1180   32.8050 C.2   275  GLY275      0.2309
     70  O         21.3000   12.8130   31.6730 O.2   275  GLY275     -0.2863
@<TRIPOS>BOND
     1    40    38    1
     2    39    38    1
     3     3     4    2
     4     3     2    1
     5    38    35    1
     6     7     5    1
     7     5     2    1
     8     5     6    1
     9     1     2    1
    10     8     9    1
    11    35    34    1
    12    35    36    1
    13    32    30    1
    14    37    36    2
    15    10     9    1
    16    10    11    2
    17    34    28   am
    18    36    41   am
    19     9    12    1
    20    19    20    1
    21    28    29    2
    22    28    27    1
    23    30    31    1
    24    30    27    1
    25    41    42    1
    26    12    13    1
    27    43    44    2
    28    43    42    1
    29    31    33    1
    30    26    27    1
    31    26    21   am
    32    21    20    1
    33    21    22    2
    34    20    23    1
    35    13    14    1
    36    17    16    1
    37    23    25    1
    38    23    24    1
    39    14    15    1
    40    16    15    2
    41    16    18    1
    42    55    54    2
    43    59    58    2
    44    57    56    1
    45    57    58    1
    46    57    60    1
    47    54    53    1
    48    49    50    1
    49    49    46    1
    50    58    63   am
    51    52    53    1
    52    52    47   am
    53    50    51    1
    54    62    60    1
    55    46    47    1
    56    46    45    1
    57    63    64    1
    58    60    61    1
    59    47    48    2
    60    64    65    1
    61    51    45    1
    62    65    66    2
    63    65    67   am
    64    70    69    2
    65    67    68    1
    66    69    68    1
