@<TRIPOS>MOLECULE
tmp/2dlcB00.pdb
 212 205 0 0 0
SMALL
GASTEIGER

@<TRIPOS>ATOM
      1  N          9.3260   41.5710  166.6980 N.3    36  TYR36      -0.1227
      2  CA         9.7270   41.2300  165.3520 C.3    36  TYR36       0.1736
      3  C          8.7380   40.3130  164.6540 C.2    36  TYR36       0.2595
      4  O          7.9540   39.5980  165.2880 O.2    36  TYR36      -0.2718
      5  CB        11.1360   40.6340  165.3370 C.3    36  TYR36       0.0548
      6  CG        11.2120   39.1450  165.6000 C.ar   36  TYR36      -0.0200
      7  CD1       11.1890   38.6470  166.8990 C.ar   36  TYR36      -0.0009
      8  CD2       11.3420   38.2420  164.5480 C.ar   36  TYR36      -0.0009
      9  CE1       11.2860   37.2800  167.1480 C.ar   36  TYR36       0.0417
     10  CE2       11.4340   36.8730  164.7830 C.ar   36  TYR36       0.0417
     11  CZ        11.4080   36.4010  166.0830 C.ar   36  TYR36       0.1957
     12  OH        11.4940   35.0510  166.3120 O.3    36  TYR36      -0.2866
     13  N          8.7920   40.3630  163.3310 N.am   37  TRP37      -0.1962
     14  CA         8.0160   39.5100  162.4580 C.3    37  TRP37       0.1771
     15  C          9.0260   38.8110  161.5620 C.2    37  TRP37       0.2620
     16  O          9.8720   39.4700  160.9540 O.2    37  TRP37      -0.2715
     17  CB         7.0630   40.3740  161.6360 C.3    37  TRP37       0.0590
     18  CG         6.3260   39.6400  160.5560 C.ar   37  TRP37       0.0006
     19  CD1        5.2420   38.8230  160.7130 C.ar   37  TRP37       0.0946
     20  CD2        6.6060   39.6690  159.1500 C.ar   37  TRP37       0.0152
     21  NE1        4.8340   38.3370  159.4930 N.ar   37  TRP37      -0.2442
     22  CE2        5.6500   38.8400  158.5140 C.ar   37  TRP37       0.0810
     23  CE3        7.5670   40.3150  158.3570 C.ar   37  TRP37       0.0012
     24  CZ2        5.6270   38.6370  157.1300 C.ar   37  TRP37       0.0191
     25  CZ3        7.5470   40.1100  156.9750 C.ar   37  TRP37       0.0001
     26  CH2        6.5810   39.2750  156.3780 C.ar   37  TRP37       0.0015
     27  N          8.9580   37.4840  161.4970 N.am   38  GLY38      -0.1940
     28  CA         9.9150   36.7120  160.7130 C.3    38  GLY38       0.2014
     29  C          9.3270   36.0560  159.4830 C.2    38  GLY38       0.2640
     30  O          8.2220   35.5230  159.5300 O.2    38  GLY38      -0.2714
     31  N         10.0680   36.0940  158.3780 N.am   39  THR39      -0.1936
     32  CA         9.6270   35.4810  157.1230 C.3    39  THR39       0.2028
     33  C         10.7520   34.6920  156.4530 C.2    39  THR39       0.2642
     34  O         11.8840   35.1670  156.3590 O.2    39  THR39      -0.2714
     35  CB         9.0030   36.5450  156.1540 C.3    39  THR39       0.1808
     36  OG1        8.4930   35.8990  154.9790 O.3    39  THR39      -0.2208
     37  CG2       10.0610   37.5180  155.5930 C.3    39  THR39       0.0379
     38  N         10.4280   33.4860  155.9950 N.am   40  ALA40      -0.1977
     39  CA        11.3950   32.6240  155.3250 C.3    40  ALA40       0.1597
     40  C         11.3740   32.8890  153.8210 C.2    40  ALA40       0.2287
     41  O         10.3490   32.6630  153.1740 O.2    40  ALA40      -0.2864
     42  CB        11.0930   31.1590  155.6200 C.3    40  ALA40       0.0319
     43  N         11.2220   32.0580  150.8060 N.3    42  THR42      -0.1218
     44  CA        10.8570   30.7460  150.3080 C.3    42  THR42       0.1862
     45  C         10.2760   30.9270  148.8910 C.2    42  THR42       0.2287
     46  O         11.0170   31.2960  147.9810 O.2    42  THR42      -0.2866
     47  CB         9.9160   30.0930  151.3870 C.3    42  THR42       0.1770
     48  OG1       10.5010   28.8810  151.8740 O.3    42  THR42      -0.2211
     49  CG2        8.5410   29.7070  150.8720 C.3    42  THR42       0.0375
     50  N          2.6080   36.2310  148.4650 N.3    46  HIS46      -0.1241
     51  CA         1.2820   36.3820  147.8840 C.3    46  HIS46       0.1621
     52  C          0.4730   37.4460  148.6270 C.2    46  HIS46       0.2264
     53  O          0.9750   38.0700  149.5670 O.2    46  HIS46      -0.2867
     54  CB         0.5550   35.0360  147.9180 C.3    46  HIS46       0.0745
     55  CG         0.6630   34.3280  149.2320 C.ar   46  HIS46       0.0817
     56  ND1       -0.2580   34.4920  150.2420 N.ar   46  HIS46      -0.2268
     57  CD2        1.5890   33.4610  149.7030 C.ar   46  HIS46       0.1154
     58  CE1        0.0940   33.7530  151.2790 C.ar   46  HIS46       0.1986
     59  NE2        1.2130   33.1210  150.9780 N.ar   46  HIS46      -0.2212
     60  N         -1.7710   37.1930  150.7580 N.3    48  GLY48      -0.1210
     61  CA        -1.8820   36.8830  152.1730 C.3    48  GLY48       0.1956
     62  C         -0.9790   37.7490  153.0350 C.2    48  GLY48       0.2611
     63  O         -1.3020   38.0350  154.1940 O.2    48  GLY48      -0.2717
     64  N          0.1350   38.1950  152.4530 N.am   49  TYR49      -0.1976
     65  CA         1.1390   38.9830  153.1720 C.3    49  TYR49       0.1639
     66  C          0.6630   40.3930  153.5350 C.2    49  TYR49       0.2290
     67  O          1.3000   41.0710  154.3410 O.2    49  TYR49      -0.2864
     68  CB         2.4590   39.0330  152.3870 C.3    49  TYR49       0.0560
     69  CG         3.3470   37.8100  152.5770 C.ar   49  TYR49      -0.0198
     70  CD1        2.9550   36.5540  152.1090 C.ar   49  TYR49      -0.0009
     71  CD2        4.5820   37.9120  153.2190 C.ar   49  TYR49      -0.0009
     72  CE1        3.7630   35.4350  152.2850 C.ar   49  TYR49       0.0417
     73  CE2        5.4010   36.7950  153.3940 C.ar   49  TYR49       0.0417
     74  CZ         4.9830   35.5620  152.9290 C.ar   49  TYR49       0.1957
     75  OH         5.7800   34.4520  153.1000 O.3    49  TYR49      -0.2866
     76  N         -1.9120   41.1410  155.2650 N.3    51  VAL51      -0.1231
     77  CA        -2.3630   41.0960  156.6640 C.3    51  VAL51       0.1678
     78  C         -1.2510   41.4570  157.6740 C.2    51  VAL51       0.2434
     79  O         -1.4290   42.4100  158.4320 O.2    51  VAL51      -0.2733
     80  CB        -3.0690   39.7450  157.0470 C.3    51  VAL51       0.0265
     81  CG1       -3.6700   39.8250  158.4540 C.3    51  VAL51       0.0020
     82  CG2       -4.1530   39.3820  156.0420 C.3    51  VAL51       0.0020
     83  N         -0.1370   40.7160  157.7140 N.am   52  PRO52      -0.2729
     84  CA         1.0200   41.1340  158.5210 C.3    52  PRO52       0.1401
     85  C          1.5020   42.5580  158.2350 C.2    52  PRO52       0.2269
     86  O          1.9510   43.2280  159.1710 O.2    52  PRO52      -0.2865
     87  CB         2.1240   40.1150  158.1510 C.3    52  PRO52       0.0296
     88  CG         1.5690   39.2370  157.0800 C.3    52  PRO52       0.0237
     89  CD         0.0900   39.3990  157.0810 C.3    52  PRO52       0.0939
     90  N         12.6660   39.9300  160.3910 N.3    69  LEU69      -0.1245
     91  CA        13.7170   38.9410  160.2460 C.3    69  LEU69       0.1561
     92  C         13.5590   38.2170  158.9140 C.2    69  LEU69       0.2260
     93  O         12.5670   37.5190  158.6780 O.2    69  LEU69      -0.2867
     94  CB        13.7090   37.9470  161.4140 C.3    69  LEU69       0.0270
     95  CG        14.7150   36.7820  161.4020 C.3    69  LEU69       0.0019
     96  CD1       16.1240   37.2870  161.6450 C.3    69  LEU69       0.0001
     97  CD2       14.3400   35.7090  162.4310 C.3    69  LEU69       0.0001
     98  N         14.5340   35.3390  157.3940 N.3    71  ALA71      -0.1245
     99  CA        15.0160   34.0670  157.9100 C.3    71  ALA71       0.1562
    100  C         15.5600   33.1650  156.7940 C.2    71  ALA71       0.2260
    101  O         14.9760   32.1250  156.4650 O.2    71  ALA71      -0.2867
    102  CB        13.9130   33.3750  158.7010 C.3    71  ALA71       0.0290
    103  N         16.4240   29.5290  157.8280 N.3    74  HIS74      -0.1241
    104  CA        15.1520   28.8330  157.9830 C.3    74  HIS74       0.1621
    105  C         14.5680   28.3940  156.6370 C.2    74  HIS74       0.2264
    106  O         13.9660   27.3260  156.5510 O.2    74  HIS74      -0.2867
    107  CB        14.1440   29.7260  158.7000 C.3    74  HIS74       0.0745
    108  CG        14.1910   29.6090  160.1880 C.ar   74  HIS74       0.0817
    109  ND1       15.0210   30.3840  160.9680 N.ar   74  HIS74      -0.2268
    110  CD2       13.5110   28.8040  161.0400 C.ar   74  HIS74       0.1154
    111  CE1       14.8480   30.0640  162.2370 C.ar   74  HIS74       0.1986
    112  NE2       13.9460   29.1000  162.3060 N.ar   74  HIS74      -0.2212
    113  N          3.7950   24.4580  159.8450 N.3   149  VAL149     -0.1245
    114  CA         4.6670   25.4880  159.2660 C.3   149  VAL149      0.1561
    115  C          5.6990   24.8580  158.3280 C.2   149  VAL149      0.2260
    116  O          5.8410   25.2670  157.1680 O.2   149  VAL149     -0.2867
    117  CB         5.3820   26.3080  160.3640 C.3   149  VAL149      0.0252
    118  CG1        6.3220   27.3470  159.7520 C.3   149  VAL149      0.0019
    119  CG2        4.3670   26.9700  161.2720 C.3   149  VAL149      0.0019
    120  N         14.4160   23.6680  162.7580 N.3   163  TYR163     -0.1241
    121  CA        13.6480   24.8520  162.3810 C.3   163  TYR163      0.1605
    122  C         12.9060   25.5680  163.5470 C.2   163  TYR163      0.2264
    123  O         13.2110   26.7380  163.8170 O.2   163  TYR163     -0.2867
    124  CB        12.7150   24.4700  161.2240 C.3   163  TYR163      0.0534
    125  CG        11.9190   25.5900  160.6070 C.ar  163  TYR163     -0.0201
    126  CD1       12.1300   25.9640  159.2840 C.ar  163  TYR163     -0.0009
    127  CD2       10.9210   26.2510  161.3350 C.ar  163  TYR163     -0.0009
    128  CE1       11.3860   26.9890  158.7060 C.ar  163  TYR163      0.0417
    129  CE2       10.1820   27.2740  160.7710 C.ar  163  TYR163      0.0417
    130  CZ        10.4180   27.6370  159.4610 C.ar  163  TYR163      0.1957
    131  OH         9.6810   28.6420  158.9100 O.3   163  TYR163     -0.2866
    132  N         13.6410   29.2150  165.5920 N.3   167  GLN167     -0.1245
    133  CA        12.6520   30.3010  165.6080 C.3   167  GLN167      0.1566
    134  C         12.4060   30.8170  167.0410 C.2   167  GLN167      0.2260
    135  O         12.2020   32.0080  167.2430 O.2   167  GLN167     -0.2867
    136  CB        11.3400   29.8850  164.9160 C.3   167  GLN167      0.0367
    137  CG        10.1970   30.8970  165.0470 C.3   167  GLN167      0.0905
    138  CD         9.0990   30.7210  163.9930 C.2   167  GLN167      0.2608
    139  OE1        9.2270   29.9040  163.0750 O.2   167  GLN167     -0.2717
    140  NE2        8.0240   31.4920  164.1250 N.am  167  GLN167     -0.0878
    141  N         15.5630   32.8770  168.2330 N.3   170  ASP170     -0.1239
    142  CA        15.6200   34.1680  167.5570 C.3   170  ASP170      0.1674
    143  C         15.0240   35.2800  168.4210 C.2   170  ASP170      0.2266
    144  O         15.5670   36.3850  168.4610 O.2   170  ASP170     -0.2867
    145  CB        14.9210   34.0970  166.1980 C.3   170  ASP170      0.1410
    146  CG        15.7030   33.2760  165.1720 C.2   170  ASP170      0.3668
    147  OD1       15.0700   32.7030  164.2630 O.co2 170  ASP170     -0.2456
    148  OD2       16.9460   33.1420  165.1850 O.co2 170  ASP170     -0.2456
    149  N          6.9280   38.4550  169.7780 N.3   179  GLN179     -0.1245
    150  CA         6.9650   38.0230  168.3830 C.3   179  GLN179      0.1566
    151  C          5.5820   38.0580  167.7490 C.2   179  GLN179      0.2260
    152  O          4.6020   37.5810  168.3320 O.2   179  GLN179     -0.2867
    153  CB         7.5810   36.6300  168.2180 C.3   179  GLN179      0.0367
    154  CG         7.8260   36.2840  166.7340 C.3   179  GLN179      0.0905
    155  CD         8.3350   34.8800  166.4780 C.2   179  GLN179      0.2608
    156  OE1        8.4390   34.4750  165.3250 O.2   179  GLN179     -0.2717
    157  NE2        8.6630   34.1450  167.5320 N.am  179  GLN179     -0.0878
    158  N          3.3060   36.9680  164.3570 N.3   181  GLY181     -0.1210
    159  CA         3.1230   36.1530  163.1640 C.3   181  GLY181      0.1956
    160  C          1.6670   35.7320  163.0090 C.2   181  GLY181      0.2612
    161  O          0.8040   36.1590  163.7780 O.2   181  GLY181     -0.2717
    162  N          1.3810   34.8930  162.0160 N.am  182  GLY182     -0.1956
    163  CA         0.0230   34.3990  161.8210 C.3   182  GLY182      0.1869
    164  C         -0.3620   33.3800  162.8740 C.2   182  GLY182      0.2309
    165  O          0.4880   32.9250  163.6400 O.2   182  GLY182     -0.2863
    166  N         -0.9540   30.4810  162.2080 N.3   184  ASP184     -0.1225
    167  CA        -0.2650   29.2490  161.8250 C.3   184  ASP184      0.1805
    168  C          1.0950   29.0700  162.5220 C.2   184  ASP184      0.2597
    169  O          1.6870   27.9940  162.4430 O.2   184  ASP184     -0.2718
    170  CB        -0.1740   29.0860  160.3000 C.3   184  ASP184      0.1424
    171  CG         0.7550   30.0960  159.6350 C.2   184  ASP184      0.3668
    172  OD1        1.1380   31.1160  160.2460 O.co2 184  ASP184     -0.2456
    173  OD2        1.1440   29.9470  158.4650 O.co2 184  ASP184     -0.2456
    174  N          1.5610   30.1030  163.2300 N.am  185  GLN185     -0.1979
    175  CA         2.8070   30.0220  164.0080 C.3   185  GLN185      0.1601
    176  C          2.5940   29.6020  165.4680 C.2   185  GLN185      0.2287
    177  O          3.5630   29.4280  166.2020 O.2   185  GLN185     -0.2864
    178  CB         3.5780   31.3520  163.9760 C.3   185  GLN185      0.0394
    179  CG         3.7340   32.0210  162.5900 C.3   185  GLN185      0.0908
    180  CD         4.6650   31.2580  161.6650 C.2   185  GLN185      0.2608
    181  OE1        5.7880   30.9110  162.0510 O.2   185  GLN185     -0.2717
    182  NE2        4.2030   30.9880  160.4450 N.am  185  GLN185     -0.0878
    183  N         -1.9900   37.1540  163.8510 N.3   209  ASN209     -0.1226
    184  CA        -3.0070   37.6060  162.9070 C.3   209  ASN209      0.1770
    185  C         -3.8190   36.4260  162.3720 C.2   209  ASN209      0.2439
    186  O         -3.3270   35.2940  162.3560 O.2   209  ASN209     -0.2733
    187  CB        -2.3950   38.4260  161.7630 C.3   209  ASN209      0.1168
    188  CG        -1.3380   37.6590  160.9820 C.2   209  ASN209      0.2627
    189  OD1       -0.1470   37.7810  161.2570 O.2   209  ASN209     -0.2716
    190  ND2       -1.7720   36.8730  159.9960 N.am  209  ASN209     -0.0877
    191  N         -5.0620   36.6760  161.9570 N.am  210  PRO210     -0.2718
    192  CA        -5.8650   35.6420  161.2920 C.3   210  PRO210      0.1535
    193  C         -5.2820   35.3010  159.9260 C.2   210  PRO210      0.2598
    194  O         -4.5960   36.1360  159.3310 O.2   210  PRO210     -0.2715
    195  CB        -7.2370   36.3020  161.1430 C.3   210  PRO210      0.0310
    196  CG        -6.9680   37.7500  161.1720 C.3   210  PRO210      0.0237
    197  CD        -5.8050   37.9400  162.0990 C.3   210  PRO210      0.0939
    198  N         -5.5340   34.0870  159.4480 N.am  211  MET211     -0.1964
    199  CA        -5.0910   33.7030  158.1100 C.3   211  MET211      0.1736
    200  C         -6.1690   34.0820  157.1050 C.2   211  MET211      0.2616
    201  O         -7.3510   33.8690  157.3590 O.2   211  MET211     -0.2715
    202  CB        -4.8080   32.1930  158.0160 C.3   211  MET211      0.0427
    203  CG        -3.8250   31.6160  159.0520 C.3   211  MET211      0.0599
    204  SD        -2.3040   32.5720  159.3130 S.3   211  MET211     -0.1393
    205  CE        -1.3640   32.1160  157.8350 C.3   211  MET211      0.0692
    206  N         -5.7700   34.6620  155.9780 N.am  212  VAL212     -0.1977
    207  CA        -6.6860   34.7760  154.8520 C.3   212  VAL212      0.1596
    208  C         -6.6970   33.4330  154.1140 C.2   212  VAL212      0.2287
    209  O         -5.6640   32.9880  153.6130 O.2   212  VAL212     -0.2864
    210  CB        -6.3850   35.9940  153.9130 C.3   212  VAL212      0.0276
    211  CG1       -4.9210   36.3250  153.8880 C.3   212  VAL212      0.0022
    212  CG2       -6.9130   35.7620  152.4940 C.3   212  VAL212      0.0022
@<TRIPOS>BOND
     1    51    54    1
     2    51    50    1
     3    51    52    1
     4    54    55    1
     5    46    45    2
     6    52    53    2
     7    45    44    1
     8    55    57   ar
     9    55    56   ar
    10    57    59   ar
    11    56    58   ar
    12    44    43    1
    13    44    47    1
    14    60    61    1
    15    49    47    1
    16    59    58   ar
    17    47    48    1
    18    70    72   ar
    19    70    69   ar
    20    61    62    1
    21    72    74   ar
    22    68    69    1
    23    68    65    1
    24    64    62   am
    25    64    65    1
    26   212   210    1
    27    69    71   ar
    28    74    75    1
    29    74    73   ar
    30    62    63    2
    31    65    66    1
    32    41    40    2
    33    71    73   ar
    34    66    67    2
    35   209   208    2
    36    40    39    1
    37   211   210    1
    38   210   207    1
    39   208   207    1
    40   207   206    1
    41    36    35    1
    42    76    77    1
    43    39    42    1
    44    39    38    1
    45    37    35    1
    46   206   200   am
    47    38    33   am
    48    82    80    1
    49    35    32    1
    50    34    33    2
    51    26    25   ar
    52    26    24   ar
    53    33    32    1
    54   101   100    2
    55   106   105    2
    56   105   104    1
    57    77    80    1
    58    77    78    1
    59   100    99    1
    60    25    23   ar
    61    80    81    1
    62    88    89    1
    63    88    87    1
    64    89    83    1
    65   200   201    2
    66   200   199    1
    67    32    31    1
    68    24    22   ar
    69   116   115    2
    70    98    99    1
    71    78    83   am
    72    78    79    2
    73    83    84    1
    74   103   104    1
    75   205   204    1
    76    99   102    1
    77   104   107    1
    78   202   199    1
    79   202   203    1
    80   199   198    1
    81    87    84    1
    82    85    84    1
    83    85    86    2
    84   115   114    1
    85    23    20   ar
    86    31    29   am
    87   173   171   ar
    88    22    20   ar
    89    22    21   ar
    90    93    92    2
    91   107   108    1
    92   128   126   ar
    93   128   130   ar
    94   131   130    1
    95    92    91    1
    96   203   204    1
    97    20    18   ar
    98   114   113    1
    99   114   117    1
   100   126   125   ar
   101   194   193    2
   102   198   193   am
   103   130   129   ar
   104    29    30    2
   105    29    28    1
   106    21    19   ar
   107   171   172   ar
   108   171   170    1
   109   118   117    1
   110   193   192    1
   111   190   188   am
   112   108   109   ar
   113   108   110   ar
   114    91    90    1
   115    91    94    1
   116   170   167    1
   117   117   119    1
   118   182   180   am
   119    18    19   ar
   120    18    17    1
   121   125   124    1
   122   125   127   ar
   123    28    27    1
   124   129   127   ar
   125    16    15    2
   126   109   111   ar
   127   188   189    2
   128   188   187    1
   129   110   112   ar
   130   195   196    1
   131   195   192    1
   132   196   197    1
   133   124   121    1
   134   192   191    1
   135    95    94    1
   136    95    96    1
   137    95    97    1
   138    27    15   am
   139    15    14    1
   140    17    14    1
   141   180   181    2
   142   180   179    1
   143   187   184    1
   144   163   162    1
   145   163   164    1
   146   167   166    1
   147   167   168    1
   148   191   197    1
   149   191   185   am
   150   162   160   am
   151   111   112   ar
   152   186   185    2
   153   185   184    1
   154   121   120    1
   155   121   122    1
   156   169   168    2
   157    14    13    1
   158   168   174   am
   159   179   178    1
   160   164   165    2
   161   184   183    1
   162   160   159    1
   163   160   161    2
   164   139   138    2
   165   159   158    1
   166   174   175    1
   167    13     3   am
   168   122   123    2
   169   178   175    1
   170   138   140   am
   171   138   137    1
   172   175   176    1
   173   147   146   ar
   174     8    10   ar
   175     8     6   ar
   176     3     4    2
   177     3     2    1
   178    10    11   ar
   179   136   137    1
   180   136   133    1
   181   146   148   ar
   182   146   145    1
   183   156   155    2
   184     5     2    1
   185     5     6    1
   186     2     1    1
   187   176   177    2
   188   132   133    1
   189     6     7   ar
   190   133   134    1
   191    11    12    1
   192    11     9   ar
   193   145   142    1
   194   155   154    1
   195   155   157   am
   196   154   153    1
   197     7     9   ar
   198   134   135    2
   199   142   141    1
   200   142   143    1
   201   151   152    2
   202   151   150    1
   203   153   150    1
   204   150   149    1
   205   143   144    2
