@<TRIPOS>MOLECULE
tmp/2dldA00.pdb
 229 225 0 0 0
SMALL
GASTEIGER

@<TRIPOS>ATOM
      1  N          0.7260   40.9160   28.8780 N.3    79  VAL79      -0.1245
      2  CA         1.0820   41.9340   27.9550 C.3    79  VAL79       0.1561
      3  C         -0.1020   42.7630   27.4880 C.2    79  VAL79       0.2260
      4  O          0.0120   43.9410   27.1610 O.2    79  VAL79      -0.2867
      5  CB         1.6570   41.2070   26.6740 C.3    79  VAL79       0.0252
      6  CG1        0.7580   40.0000   26.4070 C.3    79  VAL79       0.0019
      7  CG2        1.7390   42.1380   25.5160 C.3    79  VAL79       0.0019
      8  N          8.2050   39.1650   28.9170 N.3   102  TYR102     -0.1241
      9  CA         8.7210   37.9710   29.6370 C.3   102  TYR102      0.1605
     10  C          9.6590   37.2840   28.6250 C.2   102  TYR102      0.2264
     11  O          9.1470   36.9610   27.5200 O.2   102  TYR102     -0.2867
     12  CB         7.6610   36.9790   30.0670 C.3   102  TYR102      0.0534
     13  CG         6.2840   37.2880   29.5170 C.ar  102  TYR102     -0.0201
     14  CD1        6.0030   37.1520   28.1720 C.ar  102  TYR102     -0.0009
     15  CD2        5.3010   37.8170   30.3520 C.ar  102  TYR102     -0.0009
     16  CE1        4.7560   37.4940   27.6700 C.ar  102  TYR102      0.0417
     17  CE2        4.0570   38.1730   29.8600 C.ar  102  TYR102      0.0417
     18  CZ         3.7940   38.0140   28.5130 C.ar  102  TYR102      0.1957
     19  OH         2.5630   38.4030   28.0150 O.3   102  TYR102     -0.2866
     20  N         11.1200   33.2490   22.5620 N.3   107  ILE107     -0.1245
     21  CA        10.5020   33.2980   21.2090 C.3   107  ILE107      0.1561
     22  C         11.5360   33.1140   20.1670 C.2   107  ILE107      0.2260
     23  O         11.4330   32.2260   19.3460 O.2   107  ILE107     -0.2867
     24  CB         9.7440   34.5990   21.1370 C.3   107  ILE107      0.0252
     25  CG1        8.7470   34.5510   22.3390 C.3   107  ILE107      0.0019
     26  CG2        9.0890   34.7830   19.8080 C.3   107  ILE107      0.0019
     27  CD1        7.9320   35.8280   22.4360 C.3   107  ILE107      0.0001
     28  N         13.7270   39.4450    9.3950 N.3   152  VAL152     -0.1231
     29  CA        12.9410   40.6610    9.1110 C.3   152  VAL152      0.1692
     30  C         12.5100   41.1890   10.5050 C.2   152  VAL152      0.2593
     31  O         11.7150   40.5250   11.1440 O.2   152  VAL152     -0.2718
     32  CB        11.7650   40.4400    8.2260 C.3   152  VAL152      0.0266
     33  CG1       11.0420   41.7130    7.8310 C.3   152  VAL152      0.0020
     34  CG2       12.2420   39.7480    6.9130 C.3   152  VAL152      0.0020
     35  N         13.1870   42.2670   10.8880 N.am  153  GLY153     -0.1942
     36  CA        12.9710   42.9420   12.1350 C.3   153  GLY153      0.2014
     37  C         14.1210   42.8190   13.1290 C.2   153  GLY153      0.2640
     38  O         14.5110   41.7090   13.5450 O.2   153  GLY153     -0.2714
     39  N         14.5370   43.9610   13.7010 N.am  154  THR154     -0.1936
     40  CA        15.6900   43.8410   14.6060 C.3   154  THR154      0.2028
     41  C         15.5710   44.2980   16.0000 C.2   154  THR154      0.2643
     42  O         16.4710   44.9220   16.6200 O.2   154  THR154     -0.2714
     43  CB        16.8330   44.4930   13.7990 C.3   154  THR154      0.1808
     44  OG1       17.2410   43.5330   12.8040 O.3   154  THR154     -0.2208
     45  CG2       17.9230   44.9880   14.6510 C.3   154  THR154      0.0379
     46  N         14.5240   43.8290   16.7430 N.am  155  GLY155     -0.1939
     47  CA        14.4220   44.2140   18.1430 C.3   155  GLY155      0.2014
     48  C         15.0140   43.2520   19.1330 C.2   155  GLY155      0.2639
     49  O         15.7980   42.3600   18.8080 O.2   155  GLY155     -0.2714
     50  N         14.5910   43.3580   20.4050 N.am  156  HIS156     -0.1959
     51  CA        15.1630   42.4360   21.4100 C.3   156  HIS156      0.1787
     52  C         15.1300   41.0260   20.8250 C.2   156  HIS156      0.2620
     53  O         16.1670   40.5030   20.3620 O.2   156  HIS156     -0.2715
     54  CB        14.4750   42.6010   22.7480 C.3   156  HIS156      0.0785
     55  CG        12.9770   42.5970   22.6950 C.ar  156  HIS156      0.0821
     56  ND1       12.1510   42.7910   23.7720 N.ar  156  HIS156     -0.2267
     57  CD2       12.1630   42.4370   21.5990 C.ar  156  HIS156      0.1154
     58  CE1       10.8730   42.6960   23.3520 C.ar  156  HIS156      0.1986
     59  NE2       10.8580   42.5000   22.0460 N.ar  156  HIS156     -0.2212
     60  N         13.9630   40.4380   20.7170 N.am  157  ILE157     -0.1963
     61  CA        13.7190   39.1370   20.1880 C.3   157  ILE157      0.1727
     62  C         14.5770   38.7740   18.9880 C.2   157  ILE157      0.2616
     63  O         15.3310   37.8050   18.9910 O.2   157  ILE157     -0.2715
     64  CB        12.2380   39.0170   19.7370 C.3   157  ILE157      0.0290
     65  CG1       11.2530   39.1750   20.8940 C.3   157  ILE157      0.0022
     66  CG2       12.0460   37.6910   19.0590 C.3   157  ILE157      0.0023
     67  CD1        9.8930   38.4900   20.5830 C.3   157  ILE157      0.0001
     68  N         14.4850   39.5010   17.9100 N.am  158  GLY158     -0.1955
     69  CA        15.1940   39.2010   16.6790 C.3   158  GLY158      0.1869
     70  C         16.6780   39.2140   16.8110 C.2   158  GLY158      0.2309
     71  O         17.4190   38.5570   16.1010 O.2   158  GLY158     -0.2863
     72  N         16.9710   43.0250    8.2500 N.3   175  TYR175     -0.1227
     73  CA        16.1230   44.0480    7.7910 C.3   175  TYR175      0.1736
     74  C         15.3580   44.7670    8.9200 C.2   175  TYR175      0.2595
     75  O         14.9040   44.1650    9.8910 O.2   175  TYR175     -0.2718
     76  CB        15.0580   43.5230    6.7840 C.3   175  TYR175      0.0548
     77  CG        14.3860   44.6980    6.0830 C.ar  175  TYR175     -0.0200
     78  CD1       15.0760   45.4020    5.0950 C.ar  175  TYR175     -0.0009
     79  CD2       13.1560   45.1680    6.5010 C.ar  175  TYR175     -0.0009
     80  CE1       14.5170   46.5000    4.4860 C.ar  175  TYR175      0.0417
     81  CE2       12.5820   46.2780    5.8860 C.ar  175  TYR175      0.0417
     82  CZ        13.2610   46.9330    4.8720 C.ar  175  TYR175      0.1957
     83  OH        12.6670   47.9950    4.2250 O.3   175  TYR175     -0.2866
     84  N         15.2710   46.0960    8.7240 N.am  176  ASP176     -0.1960
     85  CA        14.5710   46.9910    9.5370 C.3   176  ASP176      0.1840
     86  C         14.4280   48.4180    8.9620 C.2   176  ASP176      0.2622
     87  O         15.0510   48.8790    8.0450 O.2   176  ASP176     -0.2715
     88  CB        15.0260   47.0890   11.0160 C.3   176  ASP176      0.1450
     89  CG        13.7690   46.9600   11.9240 C.2   176  ASP176      0.3671
     90  OD1       12.6510   46.8300   11.3790 O.co2 176  ASP176     -0.2456
     91  OD2       13.9510   46.9880   13.1330 O.co2 176  ASP176     -0.2456
     92  N         13.3760   49.0040    9.5150 N.am  177  ILE177     -0.1963
     93  CA        12.9760   50.3790    9.2700 C.3   177  ILE177      0.1727
     94  C         14.0540   51.2420    9.9420 C.2   177  ILE177      0.2616
     95  O         14.6560   52.1200    9.3970 O.2   177  ILE177     -0.2715
     96  CB        11.6400   50.6140   10.0380 C.3   177  ILE177      0.0290
     97  CG1       10.5260   50.8830    9.0490 C.3   177  ILE177      0.0022
     98  CG2       11.7650   51.6740   11.0860 C.3   177  ILE177      0.0023
     99  CD1       10.7760   50.2780    7.6890 C.3   177  ILE177      0.0001
    100  N         14.3300   50.8100   11.1940 N.am  178  PHE178     -0.1974
    101  CA        15.3250   51.5350   11.9780 C.3   178  PHE178      0.1639
    102  C         16.6570   50.8140   12.0980 C.2   178  PHE178      0.2290
    103  O         16.9240   50.0920   13.0640 O.2   178  PHE178     -0.2864
    104  CB        14.7530   51.8740   13.3680 C.3   178  PHE178      0.0560
    105  CG        15.8610   52.3230   14.2830 C.ar  178  PHE178     -0.0200
    106  CD1       16.5730   51.3920   15.0160 C.ar  178  PHE178     -0.0042
    107  CD2       16.2330   53.6380   14.3530 C.ar  178  PHE178     -0.0042
    108  CE1       17.6030   51.7690   15.8660 C.ar  178  PHE178     -0.0003
    109  CE2       17.2720   54.0380   15.1800 C.ar  178  PHE178     -0.0003
    110  CZ        17.9640   53.1040   15.9380 C.ar  178  PHE178     -0.0000
    111  N         10.2110   39.1690   12.3110 N.3   206  HIS206     -0.1226
    112  CA        10.2870   39.6580   13.6900 C.3   206  HIS206      0.1752
    113  C          9.9280   41.1390   13.6390 C.2   206  HIS206      0.2596
    114  O         10.7260   42.0140   13.9790 O.2   206  HIS206     -0.2718
    115  CB        11.7000   39.4970   14.2740 C.3   206  HIS206      0.0759
    116  CG        12.0160   38.0200   14.4200 C.ar  206  HIS206      0.0818
    117  ND1       11.6260   37.2680   15.5240 N.ar  206  HIS206     -0.2268
    118  CD2       12.5300   37.1670   13.5120 C.ar  206  HIS206      0.1154
    119  CE1       11.9710   36.0290   15.3080 C.ar  206  HIS206      0.1986
    120  NE2       12.4590   35.9300   14.0680 N.ar  206  HIS206     -0.2212
    121  N          8.6970   41.3240   13.2070 N.am  207  VAL207     -0.1966
    122  CA         8.2960   42.7780   12.9780 C.3   207  VAL207      0.1712
    123  C          6.8600   42.8420   13.3300 C.2   207  VAL207      0.2458
    124  O          6.2010   41.7610   13.3910 O.2   207  VAL207     -0.2730
    125  CB         8.7650   42.9920   11.5390 C.3   207  VAL207      0.0289
    126  CG1        7.8840   42.2590   10.5590 C.3   207  VAL207      0.0023
    127  CG2        9.0300   44.4050   11.1580 C.3   207  VAL207      0.0023
    128  N          6.3690   43.9540   13.8470 N.am  208  PRO208     -0.2727
    129  CA         5.0120   44.1230   14.3100 C.3   208  PRO208      0.1402
    130  C          4.0100   43.9040   13.1960 C.2   208  PRO208      0.2269
    131  O          4.3730   43.9330   12.0090 O.2   208  PRO208     -0.2865
    132  CB         4.8800   45.5150   14.9370 C.3   208  PRO208      0.0296
    133  CG         6.2490   46.0870   14.8160 C.3   208  PRO208      0.0237
    134  CD         7.1060   45.2100   13.9110 C.3   208  PRO208      0.0939
    135  N          2.0350   45.3260   11.2380 N.3   210  VAL210     -0.1245
    136  CA         1.6450   46.6720   10.8400 C.3   210  VAL210      0.1561
    137  C          0.7360   46.7420    9.6490 C.2   210  VAL210      0.2260
    138  O          0.6810   45.8420    8.8330 O.2   210  VAL210     -0.2867
    139  CB         2.8340   47.6300   10.6580 C.3   210  VAL210      0.0252
    140  CG1        2.7250   48.3150    9.2970 C.3   210  VAL210      0.0019
    141  CG2        2.8860   48.6450   11.8020 C.3   210  VAL210      0.0019
    142  N          1.1040   48.3530    7.3460 N.3   212  ALA212     -0.1231
    143  CA         1.9970   48.2540    6.2060 C.3   212  ALA212      0.1694
    144  C          2.3690   46.7980    5.9370 C.2   212  ALA212      0.2592
    145  O          2.1600   46.3390    4.8280 O.2   212  ALA212     -0.2718
    146  CB         3.2560   49.0810    6.3820 C.3   212  ALA212      0.0304
    147  N          2.8400   46.1260    6.9670 N.am  213  ASN213     -0.1974
    148  CA         3.2750   44.7670    6.9310 C.3   213  ASN213      0.1688
    149  C          2.2580   43.6820    6.7640 C.2   213  ASN213      0.2292
    150  O          2.6520   42.4950    6.6030 O.2   213  ASN213     -0.2864
    151  CB         4.0030   44.5130    8.3090 C.3   213  ASN213      0.1181
    152  CG         5.3660   45.1980    8.2150 C.2   213  ASN213      0.2629
    153  OD1        5.9230   45.3480    7.1190 O.2   213  ASN213     -0.2716
    154  ND2        5.8660   45.5640    9.3720 N.am  213  ASN213     -0.0877
    155  N          6.8040   33.4170   13.7670 N.3   234  CYS234     -0.1221
    156  CA         6.4380   33.2580   15.1720 C.3   234  CYS234      0.1808
    157  C          6.0420   34.6630   15.7220 C.2   234  CYS234      0.2602
    158  O          6.3340   34.8720   16.9230 O.2   234  CYS234     -0.2717
    159  CB         7.5600   32.7270   16.0230 C.3   234  CYS234      0.0970
    160  SG         8.1100   31.0260   15.9060 S.3   234  CYS234     -0.0800
    161  N          5.5250   35.5730   14.8850 N.am  235  SER235     -0.1938
    162  CA         5.2150   36.9130   15.4010 C.3   235  SER235      0.2055
    163  C          3.7080   37.1850   15.4030 C.2   235  SER235      0.2642
    164  O          2.9790   36.9270   16.3440 O.2   235  SER235     -0.2714
    165  CB         5.8660   38.0290   14.6010 C.3   235  SER235      0.2130
    166  OG         7.2520   37.9910   14.5450 O.3   235  SER235     -0.2179
    167  N          3.2810   37.8570   14.3420 N.am  236  ARG236     -0.1977
    168  CA         1.8510   38.1970   14.1910 C.3   236  ARG236      0.1597
    169  C          1.3680   37.5560   12.8980 C.2   236  ARG236      0.2287
    170  O          2.0450   37.6620   11.8710 O.2   236  ARG236     -0.2864
    171  CB         1.6830   39.6990   14.2310 C.3   236  ARG236      0.0334
    172  CG         1.7190   40.3090   15.6360 C.3   236  ARG236      0.0492
    173  CD         0.3120   40.2690   16.2720 C.3   236  ARG236      0.2205
    174  NE         0.3420   40.7910   17.6290 N.pl3 236  ARG236     -0.0865
    175  CZ        -0.5200   41.5830   18.2390 C.cat 236  ARG236      0.5346
    176  NH1       -1.6180   42.0410   17.6500 N.pl3 236  ARG236      0.1354
    177  NH2       -0.3070   41.9710   19.5200 N.pl3 236  ARG236      0.1354
    178  N          3.3620   29.5130   14.4330 N.3   260  ASP260     -0.1225
    179  CA         2.9340   29.4870   15.8420 C.3   260  ASP260      0.1805
    180  C          1.9060   30.6320   16.0150 C.2   260  ASP260      0.2598
    181  O          1.4570   30.8850   17.1040 O.2   260  ASP260     -0.2718
    182  CB         4.0640   29.6660   16.8010 C.3   260  ASP260      0.1424
    183  CG         3.7540   29.7860   18.2600 C.2   260  ASP260      0.3668
    184  OD1        3.5860   30.8890   18.7980 O.co2 260  ASP260     -0.2456
    185  OD2        3.7840   28.7630   18.9970 O.co2 260  ASP260     -0.2456
    186  N          1.6100   31.2910   14.9070 N.am  261  THR261     -0.1953
    187  CA         0.6710   32.3630   14.7970 C.3   261  THR261      0.1897
    188  C         -0.0650   32.3410   13.4360 C.2   261  THR261      0.2313
    189  O          0.5410   32.3650   12.3630 O.2   261  THR261     -0.2863
    190  CB         1.2590   33.7750   14.9380 C.3   261  THR261      0.1794
    191  OG1        1.9200   33.9030   16.1880 O.3   261  THR261     -0.2208
    192  CG2        0.1020   34.7760   14.8630 C.3   261  THR261      0.0378
    193  N          0.6930   29.4960   19.2810 N.3   297  HIS297     -0.1241
    194  CA         1.1540   30.6450   20.0760 C.3   297  HIS297      0.1621
    195  C          1.8130   30.1290   21.3460 C.2   297  HIS297      0.2264
    196  O          1.4340   30.3020   22.4910 O.2   297  HIS297     -0.2867
    197  CB        -0.0250   31.5640   20.4000 C.3   297  HIS297      0.0745
    198  CG         0.3540   32.9850   20.0510 C.ar  297  HIS297      0.0817
    199  ND1        0.1630   33.4360   18.7430 N.ar  297  HIS297     -0.2268
    200  CD2        1.0060   33.9270   20.7200 C.ar  297  HIS297      0.1154
    201  CE1        0.6810   34.6610   18.6720 C.ar  297  HIS297      0.1986
    202  NE2        1.1880   34.9830   19.8330 N.ar  297  HIS297     -0.2212
    203  N          5.3390   30.2870   21.3610 N.3   299  ALA299     -0.1231
    204  CA         6.6530   30.9020   21.3360 C.3   299  ALA299      0.1694
    205  C          7.0250   31.4780   22.6650 C.2   299  ALA299      0.2592
    206  O          8.2140   31.4640   22.9710 O.2   299  ALA299     -0.2718
    207  CB         6.6740   32.0230   20.3010 C.3   299  ALA299      0.0304
    208  N          6.0700   31.9730   23.4400 N.am  300  PHE300     -0.1976
    209  CA         6.3790   32.6450   24.6900 C.3   300  PHE300      0.1639
    210  C          6.3960   31.8630   25.9800 C.2   300  PHE300      0.2290
    211  O          6.8250   32.4080   27.0170 O.2   300  PHE300     -0.2864
    212  CB         5.2030   33.7310   24.8840 C.3   300  PHE300      0.0560
    213  CG         4.0340   33.0580   25.5790 C.ar  300  PHE300     -0.0200
    214  CD1        4.0380   32.9430   26.9820 C.ar  300  PHE300     -0.0042
    215  CD2        2.9790   32.4870   24.8830 C.ar  300  PHE300     -0.0042
    216  CE1        3.0290   32.3070   27.6500 C.ar  300  PHE300     -0.0003
    217  CE2        1.9630   31.8480   25.5720 C.ar  300  PHE300     -0.0003
    218  CZ         1.9720   31.7900   26.9590 C.ar  300  PHE300     -0.0000
    219  N          3.8130   49.5970   19.1110 N.3   337  PHE337     -0.1241
    220  CA         3.8740   49.6580   17.7100 C.3   337  PHE337      0.1605
    221  C          2.6230   49.8740   16.8970 C.2   337  PHE337      0.2264
    222  O          1.5070   49.7350   17.4260 O.2   337  PHE337     -0.2867
    223  CB         4.5410   48.3120   17.1970 C.3   337  PHE337      0.0534
    224  CG         5.7330   47.9390   18.0340 C.ar  337  PHE337     -0.0203
    225  CD1        5.5960   47.1260   19.1470 C.ar  337  PHE337     -0.0042
    226  CD2        7.0000   48.3730   17.6840 C.ar  337  PHE337     -0.0042
    227  CE1        6.6930   46.7690   19.9060 C.ar  337  PHE337     -0.0003
    228  CE2        8.1010   48.0260   18.4350 C.ar  337  PHE337     -0.0003
    229  CZ         7.9490   47.2250   19.5490 C.ar  337  PHE337     -0.0000
@<TRIPOS>BOND
     1    83    82    1
     2    80    82   ar
     3    80    78   ar
     4   145   144    2
     5    82    81   ar
     6    78    77   ar
     7    81    79   ar
     8   144   143    1
     9   144   147   am
    10    77    79   ar
    11    77    76    1
    12   143   146    1
    13   143   142    1
    14   150   149    2
    15   149   148    1
    16    76    73    1
    17    34    32    1
    18   148   147    1
    19   148   151    1
    20   153   152    2
    21    99    97    1
    22    73    72    1
    23    73    74    1
    24    33    32    1
    25    87    86    2
    26   152   151    1
    27   152   154   am
    28    32    29    1
    29    84    74   am
    30    84    85    1
    31   138   137    2
    32    74    75    2
    33    86    92   am
    34    86    85    1
    35    97    96    1
    36    29    28    1
    37    29    30    1
    38    93    92    1
    39    93    94    1
    40    93    96    1
    41   140   139    1
    42    95    94    2
    43    85    88    1
    44   137   136    1
    45    94   100   am
    46    96    98    1
    47    30    35   am
    48    30    31    2
    49   126   125    1
    50   139   136    1
    51   139   141    1
    52   136   135    1
    53    35    36    1
    54    88    89    1
    55   127   125    1
    56   100   101    1
    57    90    89   ar
    58   125   122    1
    59   170   169    2
    60    89    91   ar
    61   101   102    1
    62   101   104    1
    63   131   130    2
    64   102   103    2
    65    36    37    1
    66   111   112    1
    67   189   188    2
    68    44    43    1
    69   169   168    1
    70   122   121    1
    71   122   123    1
    72    37    38    2
    73    37    39   am
    74   130   129    1
    75   121   113   am
    76   123   124    2
    77   123   128   am
    78   104   105    1
    79   188   187    1
    80   118   120   ar
    81   118   116   ar
    82   113   112    1
    83   113   114    2
    84   112   115    1
    85    39    40    1
    86   155   156    1
    87    43    40    1
    88    43    45    1
    89   128   134    1
    90   128   129    1
    91   134   133    1
    92   120   119   ar
    93   168   171    1
    94   168   167    1
    95   171   172    1
    96   115   116    1
    97   105   107   ar
    98   105   106   ar
    99   129   132    1
   100   167   163   am
   101   107   109   ar
   102   116   117   ar
   103   178   179    1
   104   166   165    1
   105   165   162    1
   106    40    41    1
   107   187   186    1
   108   187   190    1
   109   133   132    1
   110   192   190    1
   111   161   162    1
   112   161   157   am
   113   186   180   am
   114   190   191    1
   115   106   108   ar
   116   156   157    1
   117   156   159    1
   118   109   110   ar
   119   119   117   ar
   120   162   163    1
   121   163   164    2
   122   172   173    1
   123   157   158    2
   124   179   180    1
   125   179   182    1
   126   108   110   ar
   127   160   159    1
   128    41    42    2
   129    41    46   am
   130   180   181    2
   131    71    70    2
   132   173   174    1
   133    69    70    1
   134    69    68    1
   135    46    47    1
   136   182   183    1
   137   221   222    2
   138   221   220    1
   139   223   220    1
   140   223   224    1
   141   174   175    2
   142   176   175    1
   143   226   224   ar
   144   226   228   ar
   145   220   219    1
   146    68    62   am
   147   224   225   ar
   148    47    48    1
   149   175   177    1
   150   183   184   ar
   151   183   185   ar
   152   228   229   ar
   153   201   199   ar
   154   201   202   ar
   155   199   198   ar
   156    49    48    2
   157    62    63    2
   158    62    61    1
   159    66    64    1
   160    48    50   am
   161   225   227   ar
   162   193   194    1
   163    23    22    2
   164   229   227   ar
   165    64    61    1
   166    64    65    1
   167    26    24    1
   168   202   200   ar
   169   198   197    1
   170   198   200   ar
   171   194   197    1
   172   194   195    1
   173    22    21    1
   174    61    60    1
   175   207   204    1
   176    53    52    2
   177    50    51    1
   178    67    65    1
   179    60    52   am
   180    52    51    1
   181    24    21    1
   182    24    25    1
   183    21    20    1
   184   204   203    1
   185   204   205    1
   186   195   196    2
   187    51    54    1
   188    57    59   ar
   189    57    55   ar
   190    59    58   ar
   191    25    27    1
   192   205   206    2
   193   205   208   am
   194    55    54    1
   195    55    56   ar
   196    58    56   ar
   197   208   209    1
   198   209   212    1
   199   209   210    1
   200   215   217   ar
   201   215   213   ar
   202   212   213    1
   203     7     5    1
   204   217   218   ar
   205   213   214   ar
   206   210   211    2
   207     6     5    1
   208     5     2    1
   209   218   216   ar
   210   214   216   ar
   211     4     3    2
   212     3     2    1
   213    11    10    2
   214    16    14   ar
   215    16    18   ar
   216     2     1    1
   217    19    18    1
   218    14    13   ar
   219    18    17   ar
   220    10     9    1
   221     8     9    1
   222    13    12    1
   223    13    15   ar
   224     9    12    1
   225    17    15   ar
