@<TRIPOS>MOLECULE
tmp/2dlnA00.pdb
 193 183 0 0 0
SMALL
GASTEIGER

@<TRIPOS>ATOM
      1  N          9.4750   -0.9500   41.1940 N.3    97  LYS97      -0.1245
      2  CA         9.9910   -0.5080   39.9100 C.3    97  LYS97       0.1561
      3  C          9.2980   -1.2800   38.7940 C.2    97  LYS97       0.2260
      4  O          9.2340   -0.7860   37.6570 O.2    97  LYS97      -0.2867
      5  CB        11.4830   -0.7610   39.7650 C.3    97  LYS97       0.0271
      6  CG        12.4300   -0.0380   40.7050 C.3    97  LYS97       0.0035
      7  CD        13.7960    0.1400   40.0420 C.3    97  LYS97       0.0206
      8  CE        14.6550    1.1390   40.7720 C.3    97  LYS97       0.1093
      9  NZ        14.6750    0.8790   42.2360 N.3    97  LYS97      -0.1314
     10  N         11.2780    2.6540   29.6740 N.3   112  ALA112     -0.1245
     11  CA        12.1980    1.8430   28.8780 C.3   112  ALA112      0.1562
     12  C         11.8010    0.3900   28.6770 C.2   112  ALA112      0.2260
     13  O         11.2990   -0.2900   29.5770 O.2   112  ALA112     -0.2867
     14  CB        13.5880    1.9260   29.5140 C.3   112  ALA112      0.0290
     15  N         20.7210   -3.3640   31.5230 N.3   142  ILE142     -0.1245
     16  CA        20.9940   -3.1760   32.9390 C.3   142  ILE142      0.1561
     17  C         20.0920   -4.1410   33.7060 C.2   142  ILE142      0.2260
     18  O         18.9430   -4.3230   33.2940 O.2   142  ILE142     -0.2867
     19  CB        20.6640   -1.6960   33.3770 C.3   142  ILE142      0.0252
     20  CG1       21.2830   -1.4820   34.7890 C.3   142  ILE142      0.0019
     21  CG2       19.1280   -1.4300   33.3910 C.3   142  ILE142      0.0019
     22  CD1       21.8020   -0.0380   35.0120 C.3   142  ILE142      0.0001
     23  N         18.4860   -4.8240   37.4640 N.3   144  LYS144     -0.1245
     24  CA        18.2000   -4.1530   38.7280 C.3   144  LYS144      0.1561
     25  C         17.1590   -4.9710   39.5100 C.2   144  LYS144      0.2260
     26  O         16.2750   -5.5600   38.8810 O.2   144  LYS144     -0.2867
     27  CB        17.6580   -2.7590   38.5920 C.3   144  LYS144      0.0271
     28  CG        16.3270   -2.5660   37.8930 C.3   144  LYS144      0.0035
     29  CD        16.5560   -1.8880   36.5370 C.3   144  LYS144      0.0206
     30  CE        17.2670   -0.5530   36.6030 C.3   144  LYS144      0.1093
     31  NZ        16.3340    0.5840   36.4990 N.3   144  LYS144     -0.1314
     32  N         14.6970   -2.0210   45.2290 N.3   148  GLU148     -0.1231
     33  CA        15.8700   -1.4130   45.8940 C.3   148  GLU148      0.1699
     34  C         16.0060    0.0750   45.5400 C.2   148  GLU148      0.2593
     35  O         15.2260    0.6340   44.7520 O.2   148  GLU148     -0.2718
     36  CB        17.1650   -2.1460   45.5450 C.3   148  GLU148      0.0402
     37  CG        17.5570   -3.2670   46.5240 C.3   148  GLU148      0.1161
     38  CD        17.5770   -2.7790   47.9490 C.2   148  GLU148      0.3649
     39  OE1       18.0570   -1.6870   48.1770 O.co2 148  GLU148     -0.2457
     40  OE2       17.0900   -3.5110   48.8180 O.co2 148  GLU148     -0.2457
     41  N         16.9940    0.7020   46.1330 N.am  149  GLY149     -0.1942
     42  CA        17.3440    2.1120   45.9710 C.3   149  GLY149      0.2014
     43  C         18.8640    2.1860   46.1710 C.2   149  GLY149      0.2640
     44  O         19.4110    1.1400   46.5820 O.2   149  GLY149     -0.2714
     45  N         19.4800    3.2830   45.9120 N.am  150  SER150     -0.1935
     46  CA        20.8860    3.5830   46.0210 C.3   150  SER150      0.2055
     47  C         21.8130    2.7630   45.1290 C.2   150  SER150      0.2644
     48  O         23.0170    2.6080   45.4340 O.2   150  SER150     -0.2714
     49  CB        21.3690    3.5590   47.4560 C.3   150  SER150      0.2130
     50  OG        20.4100    4.1830   48.2970 O.3   150  SER150     -0.2179
     51  N         21.2790    2.2990   44.0280 N.am  151  SER151     -0.1935
     52  CA        21.9780    1.5190   43.0080 C.3   151  SER151      0.2055
     53  C         22.4760    0.1540   43.5010 C.2   151  SER151      0.2642
     54  O         23.4900   -0.3910   43.0060 O.2   151  SER151     -0.2714
     55  CB        23.1100    2.3530   42.4220 C.3   151  SER151      0.2130
     56  OG        22.6530    3.2470   41.4480 O.3   151  SER151     -0.2179
     57  N         21.7860   -0.4040   44.4640 N.am  152  VAL152     -0.1977
     58  CA        22.0390   -1.6980   45.0650 C.3   152  VAL152      0.1596
     59  C         21.4680   -2.8140   44.1640 C.2   152  VAL152      0.2287
     60  O         20.3460   -2.7170   43.6610 O.2   152  VAL152     -0.2864
     61  CB        21.4270   -1.7610   46.4900 C.3   152  VAL152      0.0276
     62  CG1       21.7590   -3.0670   47.1860 C.3   152  VAL152      0.0022
     63  CG2       21.8560   -0.5290   47.2640 C.3   152  VAL152      0.0022
     64  N         22.3110   -3.6310   41.2410 N.3   154  MET154     -0.1245
     65  CA        22.3430   -3.3070   39.8080 C.3   154  MET154      0.1570
     66  C         23.6770   -3.6730   39.1820 C.2   154  MET154      0.2261
     67  O         24.6940   -3.6770   39.8810 O.2   154  MET154     -0.2867
     68  CB        22.0690   -1.8290   39.5810 C.3   154  MET154      0.0387
     69  CG        20.6300   -1.5800   39.9830 C.3   154  MET154      0.0595
     70  SD        20.3150    0.1100   39.3950 S.3   154  MET154     -0.1393
     71  CE        21.5210    0.2410   38.0700 C.3   154  MET154      0.0692
     72  N         16.3020   -4.3980   31.7480 N.3   180  GLU180     -0.1231
     73  CA        15.9700   -3.2920   30.8490 C.3   180  GLU180      0.1699
     74  C         17.1320   -2.7900   30.0190 C.2   180  GLU180      0.2592
     75  O         18.3220   -2.9300   30.2860 O.2   180  GLU180     -0.2718
     76  CB        15.2460   -2.1530   31.5220 C.3   180  GLU180      0.0402
     77  CG        15.6920   -1.4810   32.8070 C.3   180  GLU180      0.1161
     78  CD        15.0480   -0.1340   33.0400 C.2   180  GLU180      0.3649
     79  OE1       13.8700    0.0570   32.7970 O.co2 180  GLU180     -0.2457
     80  OE2       15.8500    0.7290   33.4640 O.co2 180  GLU180     -0.2457
     81  N         16.7300   -2.2050   28.9080 N.am  181  LYS181     -0.1966
     82  CA        17.5260   -1.6130   27.8460 C.3   181  LYS181      0.1728
     83  C         18.3080   -0.3870   28.3280 C.2   181  LYS181      0.2616
     84  O         17.7340    0.4930   28.9710 O.2   181  LYS181     -0.2715
     85  CB        16.6450   -1.1620   26.6770 C.3   181  LYS181      0.0311
     86  CG        17.4100   -0.6320   25.4510 C.3   181  LYS181      0.0038
     87  CD        16.4230   -0.0830   24.4280 C.3   181  LYS181      0.0206
     88  CE        17.0220    0.2230   23.0760 C.3   181  LYS181      0.1093
     89  NZ        17.2350    1.7000   22.9310 N.3   181  LYS181     -0.1314
     90  N         19.5760   -0.3820   27.9770 N.am  182  TRP182     -0.1960
     91  CA        20.5160    0.6700   28.2850 C.3   182  TRP182      0.1771
     92  C         20.0850    1.9660   27.5560 C.2   182  TRP182      0.2619
     93  O         19.9230    1.9560   26.3350 O.2   182  TRP182     -0.2715
     94  CB        21.9580    0.3560   27.8540 C.3   182  TRP182      0.0590
     95  CG        23.0070    1.1880   28.5230 C.ar  182  TRP182      0.0006
     96  CD1       23.7890    2.1790   27.9890 C.ar  182  TRP182      0.0946
     97  CD2       23.4010    1.0780   29.9000 C.ar  182  TRP182      0.0152
     98  NE1       24.6320    2.6910   28.9460 N.ar  182  TRP182     -0.2442
     99  CE2       24.4090    2.0380   30.1220 C.ar  182  TRP182      0.0810
    100  CE3       22.9830    0.2480   30.9450 C.ar  182  TRP182      0.0012
    101  CZ2       25.0090    2.1970   31.3620 C.ar  182  TRP182      0.0191
    102  CZ3       23.5790    0.3880   32.1760 C.ar  182  TRP182      0.0001
    103  CH2       24.5640    1.3640   32.3830 C.ar  182  TRP182      0.0015
    104  N         19.9430    2.9860   28.3900 N.am  183  LEU183     -0.1977
    105  CA        19.5850    4.3300   27.8550 C.3   183  LEU183      0.1596
    106  C         20.9630    4.9400   27.6580 C.2   183  LEU183      0.2287
    107  O         21.7820    4.7800   28.5770 O.2   183  LEU183     -0.2864
    108  CB        18.6260    4.9850   28.8120 C.3   183  LEU183      0.0297
    109  CG        17.2570    4.2900   28.8590 C.3   183  LEU183      0.0022
    110  CD1       16.2980    5.1040   29.7050 C.3   183  LEU183      0.0001
    111  CD2       16.8010    4.1050   27.4240 C.3   183  LEU183      0.0001
    112  N         21.5540   11.7310   32.2790 N.3   187  GLU187     -0.1245
    113  CA        20.6680   11.3970   33.3710 C.3   187  GLU187      0.1567
    114  C         20.1560   12.6450   34.0950 C.2   187  GLU187      0.2260
    115  O         20.8580   13.6510   34.2470 O.2   187  GLU187     -0.2867
    116  CB        21.4760   10.6430   34.4510 C.3   187  GLU187      0.0388
    117  CG        20.6460   10.0140   35.5740 C.3   187  GLU187      0.1160
    118  CD        21.3790    8.8620   36.1920 C.2   187  GLU187      0.3649
    119  OE1       22.3100    8.3210   35.6430 O.co2 187  GLU187     -0.2457
    120  OE2       20.9080    8.5610   37.3000 O.co2 187  GLU187     -0.2457
    121  N         27.7610    4.0080   35.6230 N.3   209  PHE209     -0.1227
    122  CA        26.3460    4.3410   35.9510 C.3   209  PHE209      0.1736
    123  C         26.4340    5.0810   37.2900 C.2   209  PHE209      0.2595
    124  O         27.5340    5.0700   37.8580 O.2   209  PHE209     -0.2718
    125  CB        25.4070    3.1750   35.9240 C.3   209  PHE209      0.0547
    126  CG        25.5440    2.0930   36.9520 C.ar  209  PHE209     -0.0202
    127  CD1       26.5370    1.1120   36.8240 C.ar  209  PHE209     -0.0042
    128  CD2       24.6540    2.0190   38.0330 C.ar  209  PHE209     -0.0042
    129  CE1       26.6680    0.1120   37.7540 C.ar  209  PHE209     -0.0003
    130  CE2       24.7780    0.9930   38.9830 C.ar  209  PHE209     -0.0003
    131  CZ        25.7910    0.0450   38.8410 C.ar  209  PHE209     -0.0000
    132  N         25.3400    5.6700   37.6830 N.am  210  TYR210     -0.1976
    133  CA        25.3410    6.4290   38.9870 C.3   210  TYR210      0.1639
    134  C         25.1900    5.3670   40.0720 C.2   210  TYR210      0.2290
    135  O         24.0830    5.0090   40.4910 O.2   210  TYR210     -0.2864
    136  CB        24.2680    7.4910   38.8810 C.3   210  TYR210      0.0560
    137  CG        24.2130    8.5830   39.9080 C.ar  210  TYR210     -0.0198
    138  CD1       25.3260    9.1750   40.4950 C.ar  210  TYR210     -0.0009
    139  CD2       22.9450    9.0110   40.3180 C.ar  210  TYR210     -0.0009
    140  CE1       25.1970   10.1830   41.4590 C.ar  210  TYR210      0.0417
    141  CE2       22.7820   10.0010   41.2700 C.ar  210  TYR210      0.0417
    142  CZ        23.9140   10.5810   41.8340 C.ar  210  TYR210      0.1957
    143  OH        23.6610   11.5570   42.7610 O.3   210  TYR210     -0.2866
    144  N         27.2060    7.9090   43.9420 N.3   215  LYS215     -0.1245
    145  CA        26.1440    8.5730   44.6810 C.3   215  LYS215      0.1561
    146  C         26.5710    9.2120   45.9850 C.2   215  LYS215      0.2260
    147  O         26.1880   10.3780   46.1580 O.2   215  LYS215     -0.2867
    148  CB        24.9050    7.7090   44.9410 C.3   215  LYS215      0.0271
    149  CG        24.1810    7.2900   43.6930 C.3   215  LYS215      0.0035
    150  CD        22.7450    6.8650   43.8690 C.3   215  LYS215      0.0206
    151  CE        22.0560    6.6430   42.5270 C.3   215  LYS215      0.1093
    152  NZ        20.7960    5.8810   42.6810 N.3   215  LYS215     -0.1314
    153  N         13.6240   10.1290   38.8360 N.3   257  ASP257     -0.1239
    154  CA        14.8280    9.8990   38.0160 C.3   257  ASP257      0.1674
    155  C         14.3650    9.6560   36.5580 C.2   257  ASP257      0.2266
    156  O         13.3580    8.9810   36.3220 O.2   257  ASP257     -0.2867
    157  CB        15.6780    8.7450   38.5150 C.3   257  ASP257      0.1410
    158  CG        16.0520    8.8870   39.9740 C.2   257  ASP257      0.3668
    159  OD1       16.1560   10.0230   40.4570 O.co2 257  ASP257     -0.2456
    160  OD2       16.2170    7.8260   40.6080 O.co2 257  ASP257     -0.2456
    161  N         16.0990    9.7900   32.2290 N.3   259  MET259     -0.1245
    162  CA        17.2620    9.7760   31.3420 C.3   259  MET259      0.1570
    163  C         16.7960    9.9530   29.8810 C.2   259  MET259      0.2261
    164  O         15.7200    9.5070   29.4970 O.2   259  MET259     -0.2867
    165  CB        18.0560    8.4730   31.3590 C.3   259  MET259      0.0387
    166  CG        18.6260    8.1030   32.6840 C.3   259  MET259      0.0595
    167  SD        19.6720    6.6140   32.4020 S.3   259  MET259     -0.1393
    168  CE        21.1430    7.3900   31.7150 C.3   259  MET259      0.0692
    169  N         12.7760    6.3330   34.8550 N.3   269  LEU269     -0.1231
    170  CA        13.4480    5.2010   35.5160 C.3   269  LEU269      0.1693
    171  C         12.6560    4.6830   36.7220 C.2   269  LEU269      0.2591
    172  O         12.3040    3.4950   36.8190 O.2   269  LEU269     -0.2718
    173  CB        14.8260    5.7220   35.9320 C.3   269  LEU269      0.0284
    174  CG        16.0470    5.3750   35.1290 C.3   269  LEU269      0.0019
    175  CD1       15.8350    5.4180   33.6490 C.3   269  LEU269      0.0001
    176  CD2       17.1430    6.3520   35.5400 C.3   269  LEU269      0.0001
    177  N         12.3910    5.5990   37.6440 N.am  270  GLU270     -0.1979
    178  CA        11.6270    5.3250   38.8680 C.3   270  GLU270      0.1602
    179  C         11.4020    6.6050   39.6770 C.2   270  GLU270      0.2287
    180  O         12.1030    7.5790   39.4190 O.2   270  GLU270     -0.2864
    181  CB        12.4880    4.4910   39.8760 C.3   270  GLU270      0.0415
    182  CG        13.8000    5.2700   40.1680 C.3   270  GLU270      0.1163
    183  CD        14.3450    5.0620   41.5340 C.2   270  GLU270      0.3649
    184  OE1       13.5050    4.5410   42.2860 O.co2 270  GLU270     -0.2457
    185  OE2       15.4710    5.3420   41.8780 O.co2 270  GLU270     -0.2457
    186  N         11.0630    8.1830   43.7670 N.3   272  ASN272     -0.1240
    187  CA        11.5110    7.9850   45.1610 C.3   272  ASN272      0.1653
    188  C         10.6670    8.8480   46.1000 C.2   272  ASN272      0.2266
    189  O         10.8380   10.0750   46.0670 O.2   272  ASN272     -0.2867
    190  CB        13.0040    8.2720   45.3020 C.3   272  ASN272      0.1155
    191  CG        13.8600    7.4870   44.3260 C.2   272  ASN272      0.2627
    192  OD1       14.0600    6.2650   44.5310 O.2   272  ASN272     -0.2716
    193  ND2       14.3690    8.1860   43.3210 N.am  272  ASN272     -0.0877
@<TRIPOS>BOND
     1    89    88    1
     2    88    87    1
     3    87    86    1
     4    86    85    1
     5    93    92    2
     6    85    82    1
     7   111   109    1
     8    92    91    1
     9    92   104   am
    10   106   105    1
    11   106   107    2
    12    82    83    1
    13    82    81    1
    14    94    91    1
    15    94    95    1
    16   105   104    1
    17   105   108    1
    18    90    91    1
    19    90    83   am
    20    96    95   ar
    21    96    98   ar
    22    83    84    2
    23    95    97   ar
    24    12    11    1
    25    12    13    2
    26   108   109    1
    27   109   110    1
    28    11    14    1
    29    11    10    1
    30    81    74   am
    31    98    99   ar
    32   164   163    2
    33   163   162    1
    34    97    99   ar
    35    97   100   ar
    36    74    75    2
    37    74    73    1
    38    99   101   ar
    39    73    76    1
    40    73    72    1
    41   100   102   ar
    42   162   165    1
    43   162   161    1
    44   165   166    1
    45   101   103   ar
    46    76    77    1
    47    15    16    1
    48   168   167    1
    49   102   103   ar
    50   112   113    1
    51   167   166    1
    52    79    78   ar
    53    77    78    1
    54    16    19    1
    55    16    17    1
    56    78    80   ar
    57    18    17    2
    58   113   114    1
    59   113   116    1
    60    19    21    1
    61    19    20    1
    62   175   174    1
    63   114   115    2
    64   116   117    1
    65    20    22    1
    66   169   170    1
    67   174   176    1
    68   174   173    1
    69   170   173    1
    70   170   171    1
    71   117   118    1
    72   121   122    1
    73   119   118   ar
    74   125   122    1
    75   125   126    1
    76   122   123    1
    77   118   120   ar
    78   156   155    2
    79    31    30    1
    80    29    30    1
    81    29    28    1
    82   155   154    1
    83   171   172    2
    84   171   177   am
    85   127   126   ar
    86   127   129   ar
    87   126   128   ar
    88   123   132   am
    89   123   124    2
    90    23    24    1
    91   177   178    1
    92     4     3    2
    93   132   133    1
    94   129   131   ar
    95    28    27    1
    96   154   157    1
    97   154   153    1
    98   128   130   ar
    99    71    70    1
   100   157   158    1
   101    27    24    1
   102    24    25    1
   103     3     2    1
   104   131   130   ar
   105   178   179    1
   106   178   181    1
   107   136   133    1
   108   136   137    1
   109    26    25    2
   110   133   134    1
   111    66    65    1
   112    66    67    2
   113    70    69    1
   114   180   179    2
   115    68    65    1
   116    68    69    1
   117     5     2    1
   118     5     6    1
   119    65    64    1
   120   181   182    1
   121   137   139   ar
   122   137   138   ar
   123     2     1    1
   124   158   159   ar
   125   158   160   ar
   126     7     6    1
   127     7     8    1
   128   134   135    2
   129   182   183    1
   130   139   141   ar
   131   138   140   ar
   132     8     9    1
   133   141   142   ar
   134    56    55    1
   135   140   142   ar
   136   183   185   ar
   137   183   184   ar
   138   142   143    1
   139    55    52    1
   140   151   152    1
   141   151   150    1
   142    54    53    2
   143    52    53    1
   144    52    51    1
   145   193   191   am
   146    53    57   am
   147    60    59    2
   148   149   150    1
   149   149   148    1
   150   186   187    1
   151   144   145    1
   152    51    47   am
   153    59    58    1
   154   191   192    2
   155   191   190    1
   156    57    58    1
   157   145   148    1
   158   145   146    1
   159    35    34    2
   160    58    61    1
   161    47    48    2
   162    47    46    1
   163   187   190    1
   164   187   188    1
   165    32    33    1
   166    34    33    1
   167    34    41   am
   168    36    33    1
   169    36    37    1
   170    45    46    1
   171    45    43   am
   172    42    41    1
   173    42    43    1
   174   146   147    2
   175    46    49    1
   176   189   188    2
   177    43    44    2
   178    61    62    1
   179    61    63    1
   180    37    38    1
   181    49    50    1
   182    38    39   ar
   183    38    40   ar
