@<TRIPOS>MOLECULE
tmp/2dlnA01.pdb
 162 154 0 0 0
SMALL
GASTEIGER

@<TRIPOS>ATOM
      1  N         19.6940    0.2910   52.6170 N.3    15  GLU15      -0.1245
      2  CA        19.9380    1.7270   52.5520 C.3    15  GLU15       0.1567
      3  C         20.0260    2.3960   53.9000 C.2    15  GLU15       0.2260
      4  O         20.0900    3.6360   54.0120 O.2    15  GLU15      -0.2867
      5  CB        18.9020    2.4540   51.7080 C.3    15  GLU15       0.0388
      6  CG        18.7160    1.9490   50.2660 C.3    15  GLU15       0.1160
      7  CD        17.5980    2.6640   49.5630 C.2    15  GLU15       0.3649
      8  OE1       17.9910    3.7450   49.0730 O.co2  15  GLU15      -0.2457
      9  OE2       16.4550    2.2430   49.4970 O.co2  15  GLU15      -0.2457
     10  N         22.5470    5.3670   54.7410 N.3    18  VAL18      -0.1245
     11  CA        22.2090    6.6150   54.0340 C.3    18  VAL18       0.1561
     12  C         21.0930    7.2570   54.8840 C.2    18  VAL18       0.2260
     13  O         21.0920    8.4520   55.1060 O.2    18  VAL18      -0.2867
     14  CB        21.7670    6.3490   52.5870 C.3    18  VAL18       0.0252
     15  CG1       21.7130    7.6120   51.7580 C.3    18  VAL18       0.0019
     16  CG2       22.5990    5.2610   51.9220 C.3    18  VAL18       0.0019
     17  N         14.6360    4.9910   54.1210 N.3    63  HIS63      -0.1241
     18  CA        14.7490    4.6410   52.7000 C.3    63  HIS63       0.1621
     19  C         14.6110    3.1500   52.4350 C.2    63  HIS63       0.2264
     20  O         15.2060    2.3360   53.1660 O.2    63  HIS63      -0.2867
     21  CB        16.0990    5.1160   52.1030 C.3    63  HIS63       0.0745
     22  CG        16.4600    6.5120   52.5010 C.ar   63  HIS63       0.0817
     23  ND1       15.6420    7.6140   52.3560 N.ar   63  HIS63      -0.2268
     24  CD2       17.6260    6.9880   53.0130 C.ar   63  HIS63       0.1154
     25  CE1       16.2710    8.6780   52.8040 C.ar   63  HIS63       0.1986
     26  NE2       17.4650    8.3240   53.2110 N.ar   63  HIS63      -0.2212
     27  N          9.7180    3.2220   53.0590 N.3    68  GLU68      -0.1245
     28  CA         9.2940    3.8590   51.8150 C.3    68  GLU68       0.1567
     29  C          8.2370    3.0360   51.1260 C.2    68  GLU68       0.2260
     30  O          7.7790    3.4130   50.0360 O.2    68  GLU68      -0.2867
     31  CB        10.4830    4.0470   50.9060 C.3    68  GLU68       0.0388
     32  CG        10.6470    5.3050   50.0880 C.3    68  GLU68       0.1160
     33  CD        12.0140    5.4480   49.4660 C.2    68  GLU68       0.3649
     34  OE1       12.8530    4.6600   49.9730 O.co2  68  GLU68      -0.2457
     35  OE2       12.2940    6.2100   48.5850 O.co2  68  GLU68      -0.2457
     36  N         16.9940    0.7020   46.1330 N.3   149  GLY149     -0.1210
     37  CA        17.3440    2.1120   45.9710 C.3   149  GLY149      0.1956
     38  C         18.8640    2.1860   46.1710 C.2   149  GLY149      0.2612
     39  O         19.4110    1.1400   46.5820 O.2   149  GLY149     -0.2717
     40  N         19.4800    3.2830   45.9120 N.am  150  SER150     -0.1952
     41  CA        20.8860    3.5830   46.0210 C.3   150  SER150      0.1924
     42  C         21.8130    2.7630   45.1290 C.2   150  SER150      0.2314
     43  O         23.0170    2.6080   45.4340 O.2   150  SER150     -0.2863
     44  CB        21.3690    3.5590   47.4560 C.3   150  SER150      0.2116
     45  OG        20.4100    4.1830   48.2970 O.3   150  SER150     -0.2180
     46  N         25.3400    5.6700   37.6830 N.3   210  TYR210     -0.1241
     47  CA        25.3410    6.4290   38.9870 C.3   210  TYR210      0.1605
     48  C         25.1900    5.3670   40.0720 C.2   210  TYR210      0.2264
     49  O         24.0830    5.0090   40.4910 O.2   210  TYR210     -0.2867
     50  CB        24.2680    7.4910   38.8810 C.3   210  TYR210      0.0534
     51  CG        24.2130    8.5830   39.9080 C.ar  210  TYR210     -0.0201
     52  CD1       25.3260    9.1750   40.4950 C.ar  210  TYR210     -0.0009
     53  CD2       22.9450    9.0110   40.3180 C.ar  210  TYR210     -0.0009
     54  CE1       25.1970   10.1830   41.4590 C.ar  210  TYR210      0.0417
     55  CE2       22.7820   10.0010   41.2700 C.ar  210  TYR210      0.0417
     56  CZ        23.9140   10.5810   41.8340 C.ar  210  TYR210      0.1957
     57  OH        23.6610   11.5570   42.7610 O.3   210  TYR210     -0.2866
     58  N         27.2060    7.9090   43.9420 N.3   215  LYS215     -0.1231
     59  CA        26.1440    8.5730   44.6810 C.3   215  LYS215      0.1693
     60  C         26.5710    9.2120   45.9850 C.2   215  LYS215      0.2588
     61  O         26.1880   10.3780   46.1580 O.2   215  LYS215     -0.2718
     62  CB        24.9050    7.7090   44.9410 C.3   215  LYS215      0.0285
     63  CG        24.1810    7.2900   43.6930 C.3   215  LYS215      0.0035
     64  CD        22.7450    6.8650   43.8690 C.3   215  LYS215      0.0206
     65  CE        22.0560    6.6430   42.5270 C.3   215  LYS215      0.1093
     66  NZ        20.7960    5.8810   42.6810 N.3   215  LYS215     -0.1314
     67  N         27.2600    8.4750   46.8300 N.am  216  TYR216     -0.2029
     68  CA        27.6900    8.9160   48.1380 C.3   216  TYR216      0.1325
     69  C         29.1630    8.9910   48.4500 C.3   216  TYR216      0.2039
     70  O         29.4630    9.8030   49.3630 O.3   216  TYR216     -0.2185
     71  CB        27.0980    8.0150   49.2820 C.3   216  TYR216      0.0507
     72  CG        25.6430    7.6760   49.0840 C.ar  216  TYR216     -0.0202
     73  CD1       24.6400    8.5930   49.3650 C.ar  216  TYR216     -0.0009
     74  CD2       25.2640    6.4360   48.5880 C.ar  216  TYR216     -0.0009
     75  CE1       23.3010    8.2710   49.1780 C.ar  216  TYR216      0.0417
     76  CE2       23.9330    6.1000   48.3790 C.ar  216  TYR216      0.0417
     77  CZ        22.9460    7.0170   48.6790 C.ar  216  TYR216      0.1957
     78  OH        21.6390    6.6860   48.4640 O.3   216  TYR216     -0.2866
     79  N         11.1000   12.6170   44.5860 N.3   255  ARG255     -0.1245
     80  CA        12.0410   12.8700   43.5030 C.3   255  ARG255      0.1563
     81  C         12.0480   11.8080   42.4060 C.2   255  ARG255      0.2260
     82  O         12.2210   10.5970   42.6910 O.2   255  ARG255     -0.2867
     83  CB        13.4600   13.0180   44.0950 C.3   255  ARG255      0.0307
     84  CG        14.3860   13.8610   43.2240 C.3   255  ARG255      0.0489
     85  CD        15.8000   13.8170   43.7000 C.3   255  ARG255      0.2205
     86  NE        16.4350   12.5930   43.2530 N.pl3 255  ARG255     -0.0865
     87  CZ        16.6680   11.5490   44.0310 C.cat 255  ARG255      0.5346
     88  NH1       16.4000   11.5550   45.3350 N.pl3 255  ARG255      0.1354
     89  NH2       17.1400   10.4340   43.4720 N.pl3 255  ARG255      0.1354
     90  N         13.6240   10.1290   38.8360 N.3   257  ASP257     -0.1239
     91  CA        14.8280    9.8990   38.0160 C.3   257  ASP257      0.1674
     92  C         14.3650    9.6560   36.5580 C.2   257  ASP257      0.2266
     93  O         13.3580    8.9810   36.3220 O.2   257  ASP257     -0.2867
     94  CB        15.6780    8.7450   38.5150 C.3   257  ASP257      0.1410
     95  CG        16.0520    8.8870   39.9740 C.2   257  ASP257      0.3668
     96  OD1       16.1560   10.0230   40.4570 O.co2 257  ASP257     -0.2456
     97  OD2       16.2170    7.8260   40.6080 O.co2 257  ASP257     -0.2456
     98  N         12.3910    5.5990   37.6440 N.3   270  GLU270     -0.1245
     99  CA        11.6270    5.3250   38.8680 C.3   270  GLU270      0.1567
    100  C         11.4020    6.6050   39.6770 C.2   270  GLU270      0.2260
    101  O         12.1030    7.5790   39.4190 O.2   270  GLU270     -0.2867
    102  CB        12.4880    4.4910   39.8760 C.3   270  GLU270      0.0388
    103  CG        13.8000    5.2700   40.1680 C.3   270  GLU270      0.1160
    104  CD        14.3450    5.0620   41.5340 C.2   270  GLU270      0.3649
    105  OE1       13.5050    4.5410   42.2860 O.co2 270  GLU270     -0.2457
    106  OE2       15.4710    5.3420   41.8780 O.co2 270  GLU270     -0.2457
    107  N         11.0630    8.1830   43.7670 N.3   272  ASN272     -0.1240
    108  CA        11.5110    7.9850   45.1610 C.3   272  ASN272      0.1653
    109  C         10.6670    8.8480   46.1000 C.2   272  ASN272      0.2266
    110  O         10.8380   10.0750   46.0670 O.2   272  ASN272     -0.2867
    111  CB        13.0040    8.2720   45.3020 C.3   272  ASN272      0.1155
    112  CG        13.8600    7.4870   44.3260 C.2   272  ASN272      0.2627
    113  OD1       14.0600    6.2650   44.5310 O.2   272  ASN272     -0.2716
    114  ND2       14.3690    8.1860   43.3210 N.am  272  ASN272     -0.0877
    115  N         10.7450    9.1250   49.4110 N.3   274  SER274     -0.1203
    116  CA        11.4930    9.4980   50.6230 C.3   274  SER274      0.2005
    117  C         12.9730    9.6040   50.2280 C.2   274  SER274      0.2461
    118  O         13.8130    8.7580   50.5410 O.2   274  SER274     -0.2732
    119  CB        11.2520    8.5520   51.7680 C.3   274  SER274      0.2103
    120  OG        11.9420    8.8520   52.9480 O.3   274  SER274     -0.2182
    121  N         13.3000   10.6780   49.5070 N.am  275  PRO275     -0.2717
    122  CA        14.6400   10.9520   49.0110 C.3   275  PRO275      0.1535
    123  C         15.6720   11.1920   50.0960 C.2   275  PRO275      0.2599
    124  O         15.3190   11.6490   51.1790 O.2   275  PRO275     -0.2715
    125  CB        14.4980   12.2260   48.1720 C.3   275  PRO275      0.0310
    126  CG        13.0400   12.4290   47.9820 C.3   275  PRO275      0.0237
    127  CD        12.3330   11.7240   49.1060 C.3   275  PRO275      0.0939
    128  N         16.9190   10.9220   49.7850 N.am  276  GLY276     -0.1955
    129  CA        18.0320   11.1330   50.7410 C.3   276  GLY276      0.1869
    130  C         18.1460   12.6480   50.9990 C.2   276  GLY276      0.2309
    131  O         17.5740   13.4410   50.2480 O.2   276  GLY276     -0.2863
    132  N         25.4020   14.8160   50.0100 N.3   280  HIS280     -0.1226
    133  CA        25.5270   14.4060   48.6230 C.3   280  HIS280      0.1752
    134  C         24.1840   14.3250   47.9140 C.2   280  HIS280      0.2597
    135  O         24.1400   14.1880   46.6810 O.2   280  HIS280     -0.2718
    136  CB        26.1900   12.9950   48.5330 C.3   280  HIS280      0.0759
    137  CG        27.6760   13.0120   48.6740 C.ar  280  HIS280      0.0818
    138  ND1       28.3720   13.4280   49.7800 N.ar  280  HIS280     -0.2268
    139  CD2       28.6350   12.6220   47.7890 C.ar  280  HIS280      0.1154
    140  CE1       29.6740   13.3110   49.5650 C.ar  280  HIS280      0.1986
    141  NE2       29.8630   12.8180   48.3730 N.ar  280  HIS280     -0.2212
    142  N         23.1020   14.4370   48.6520 N.am  281  SER281     -0.1938
    143  CA        21.7480   14.3240   48.1090 C.3   281  SER281      0.2055
    144  C         21.3400   15.4480   47.1810 C.2   281  SER281      0.2643
    145  O         21.7170   16.6010   47.2860 O.2   281  SER281     -0.2714
    146  CB        20.7090   14.0660   49.1770 C.3   281  SER281      0.2130
    147  OG        20.8100   12.7220   49.6530 O.3   281  SER281     -0.2179
    148  N         20.4750   15.0730   46.2780 N.am  282  LEU282     -0.1963
    149  CA        19.8710   15.7940   45.2010 C.3   282  LEU282      0.1728
    150  C         18.7290   16.7220   45.5570 C.2   282  LEU282      0.2616
    151  O         18.6800   17.8310   44.9700 O.2   282  LEU282     -0.2715
    152  CB        19.4750   14.7220   44.1460 C.3   282  LEU282      0.0311
    153  CG        20.6150   13.9740   43.4880 C.3   282  LEU282      0.0022
    154  CD1       20.0300   12.8520   42.6390 C.3   282  LEU282      0.0001
    155  CD2       21.4460   14.9110   42.6090 C.3   282  LEU282      0.0001
    156  N         17.8670   16.2960   46.4640 N.am  283  VAL283     -0.1977
    157  CA        16.7320   17.1520   46.8710 C.3   283  VAL283      0.1596
    158  C         17.2330   18.4710   47.4500 C.2   283  VAL283      0.2287
    159  O         16.7110   19.5500   47.0730 O.2   283  VAL283     -0.2864
    160  CB        15.7120   16.4040   47.7300 C.3   283  VAL283      0.0276
    161  CG1       14.6110   17.2970   48.3340 C.3   283  VAL283      0.0022
    162  CG2       15.0240   15.2960   46.9760 C.3   283  VAL283      0.0022
@<TRIPOS>BOND
     1    93    92    2
     2    92    91    1
     3    98    99    1
     4    46    47    1
     5    91    94    1
     6    91    90    1
     7    94    95    1
     8    99   100    1
     9    99   102    1
    10    50    47    1
    11    50    51    1
    12    47    48    1
    13   101   100    2
    14   102   103    1
    15    51    53   ar
    16    51    52   ar
    17    95    96   ar
    18    95    97   ar
    19    48    49    2
    20   103   104    1
    21    53    55   ar
    22    52    54   ar
    23    55    56   ar
    24    54    56   ar
    25   104   106   ar
    26   104   105   ar
    27    56    57    1
    28    81    82    2
    29    81    80    1
    30    65    66    1
    31    65    64    1
    32   155   153    1
    33   154   153    1
    34    84    85    1
    35    84    83    1
    36    86    85    1
    37    86    87    2
    38   114   112   am
    39    89    87    1
    40   153   152    1
    41    80    83    1
    42    80    79    1
    43    63    64    1
    44    63    62    1
    45   107   108    1
    46    58    59    1
    47    87    88    1
    48   152   149    1
    49   112   113    2
    50   112   111    1
    51    59    62    1
    52    59    60    1
    53   151   150    2
    54    42    43    2
    55    42    41    1
    56   108   111    1
    57   108   109    1
    58   149   150    1
    59   149   148    1
    60   150   156   am
    61    40    41    1
    62    40    38   am
    63    37    36    1
    64    37    38    1
    65    60    61    2
    66    60    67   am
    67    41    44    1
    68   110   109    2
    69    38    39    2
    70   148   144   am
    71   156   157    1
    72   135   134    2
    73    67    68    1
    74   157   158    1
    75   157   160    1
    76   162   160    1
    77   159   158    2
    78   144   145    2
    79   144   143    1
    80    44    45    1
    81   160   161    1
    82   139   141   ar
    83   139   137   ar
    84   134   133    1
    85   134   142   am
    86   126   125    1
    87   126   127    1
    88   143   142    1
    89   143   146    1
    90    68    69    1
    91    68    71    1
    92   125   122    1
    93   141   140   ar
    94    76    74   ar
    95    76    77   ar
    96    69    70    1
    97    78    77    1
    98   136   133    1
    99   136   137    1
   100    35    33   ar
   101    74    72   ar
   102   133   132    1
   103   137   138   ar
   104    77    75   ar
   105   122   121    1
   106   122   123    1
   107     8     7   ar
   108    72    71    1
   109    72    73   ar
   110   127   121    1
   111   146   147    1
   112    75    73   ar
   113   115   116    1
   114    33    34   ar
   115    33    32    1
   116     9     7   ar
   117   121   117   am
   118     7     6    1
   119   140   138   ar
   120   128   123   am
   121   128   129    1
   122    30    29    2
   123    32    31    1
   124   123   124    2
   125   117   118    2
   126   117   116    1
   127   131   130    2
   128     6     5    1
   129   116   119    1
   130   129   130    1
   131    31    28    1
   132    29    28    1
   133     5     2    1
   134    15    14    1
   135   119   120    1
   136    28    27    1
   137    16    14    1
   138    21    22    1
   139    21    18    1
   140    23    22   ar
   141    23    25   ar
   142    19    18    1
   143    19    20    2
   144    22    24   ar
   145     2     1    1
   146     2     3    1
   147    14    11    1
   148    18    17    1
   149    25    26   ar
   150    24    26   ar
   151     3     4    2
   152    11    10    1
   153    11    12    1
   154    12    13    2
