@<TRIPOS>MOLECULE
tmp/2dm5A00.pdb
 158 145 0 0 0
SMALL
GASTEIGER

@<TRIPOS>ATOM
      1  N         47.8980   17.0260   47.6890 N.3    24  LEU24      -0.1245
      2  CA        48.2310   16.9690   46.2550 C.3    24  LEU24       0.1561
      3  C         47.8880   15.5600   45.7870 C.2    24  LEU24       0.2260
      4  O         47.9520   14.5910   46.5670 O.2    24  LEU24      -0.2867
      5  CB        49.7140   17.2330   45.9730 C.3    24  LEU24       0.0270
      6  CG        50.1170   18.7000   46.1920 C.3    24  LEU24       0.0019
      7  CD1       51.6150   18.8150   45.9530 C.3    24  LEU24       0.0001
      8  CD2       49.3260   19.6570   45.2870 C.3    24  LEU24       0.0001
      9  N         56.6060   18.4080   41.3020 N.3    38  PHE38      -0.1241
     10  CA        55.2850   18.9850   41.5270 C.3    38  PHE38       0.1605
     11  C         54.8110   18.9960   42.9680 C.2    38  PHE38       0.2264
     12  O         53.6390   19.2900   43.2410 O.2    38  PHE38      -0.2867
     13  CB        54.2490   18.3380   40.6050 C.3    38  PHE38       0.0534
     14  CG        54.4590   18.7030   39.1610 C.ar   38  PHE38      -0.0203
     15  CD1       55.5210   18.1400   38.4410 C.ar   38  PHE38      -0.0042
     16  CD2       53.6730   19.6720   38.5500 C.ar   38  PHE38      -0.0042
     17  CE1       55.7950   18.5390   37.1360 C.ar   38  PHE38      -0.0003
     18  CE2       53.9380   20.0840   37.2340 C.ar   38  PHE38      -0.0003
     19  CZ        55.0020   19.5110   36.5320 C.ar   38  PHE38      -0.0000
     20  N         54.7060   21.0700   45.2410 N.3    40  LEU40      -0.1245
     21  CA        54.8150   22.5120   45.4170 C.3    40  LEU40       0.1561
     22  C         53.9080   23.0590   46.5110 C.2    40  LEU40       0.2260
     23  O         52.7060   22.7730   46.5430 O.2    40  LEU40      -0.2867
     24  CB        54.4930   23.2140   44.0930 C.3    40  LEU40       0.0270
     25  CG        55.4810   22.9200   42.9440 C.3    40  LEU40       0.0019
     26  CD1       55.1030   23.6880   41.6980 C.3    40  LEU40       0.0001
     27  CD2       56.8950   23.3130   43.3800 C.3    40  LEU40       0.0001
     28  N         52.0910   26.0510   47.8340 N.3    42  LEU42      -0.1245
     29  CA        51.5950   27.3560   47.4810 C.3    42  LEU42       0.1561
     30  C         51.5830   28.2840   48.7030 C.2    42  LEU42       0.2260
     31  O         51.3530   27.8400   49.8520 O.2    42  LEU42      -0.2867
     32  CB        50.1810   27.2160   46.8970 C.3    42  LEU42       0.0270
     33  CG        49.5470   28.4950   46.3420 C.3    42  LEU42       0.0019
     34  CD1       50.3420   28.9960   45.1220 C.3    42  LEU42       0.0001
     35  CD2       48.0990   28.1520   45.9120 C.3    42  LEU42       0.0001
     36  N         48.4170   33.7360   45.7110 N.3    45  ILE45      -0.1245
     37  CA        48.0110   33.9000   44.3350 C.3    45  ILE45       0.1561
     38  C         47.7880   35.3820   44.1650 C.2    45  ILE45       0.2260
     39  O         47.0420   35.9790   44.9220 O.2    45  ILE45      -0.2867
     40  CB        46.6770   33.1780   44.0220 C.3    45  ILE45       0.0252
     41  CG1       46.8670   31.6460   44.1210 C.3    45  ILE45       0.0019
     42  CG2       46.2150   33.5620   42.5780 C.3    45  ILE45       0.0019
     43  CD1       45.5680   30.7960   43.9280 C.3    45  ILE45       0.0001
     44  N         47.8330   35.0410   36.5560 N.3    52  LEU52      -0.1245
     45  CA        47.8820   34.8030   37.9890 C.3    52  LEU52       0.1561
     46  C         49.3580   34.6570   38.3160 C.2    52  LEU52       0.2260
     47  O         50.0780   33.9230   37.6240 O.2    52  LEU52      -0.2867
     48  CB        47.1720   33.4880   38.3670 C.3    52  LEU52       0.0270
     49  CG        45.7030   33.3420   37.9570 C.3    52  LEU52       0.0019
     50  CD1       45.2010   31.9380   38.2840 C.3    52  LEU52       0.0001
     51  CD2       44.8560   34.3930   38.6940 C.3    52  LEU52       0.0001
     52  N         51.8100   33.0190   40.7490 N.3    54  LEU54      -0.1245
     53  CA        51.7860   32.0200   41.8090 C.3    54  LEU54       0.1561
     54  C         53.0850   31.9500   42.5880 C.2    54  LEU54       0.2260
     55  O         54.1560   31.7710   42.0080 O.2    54  LEU54      -0.2867
     56  CB        51.4680   30.6560   41.1930 C.3    54  LEU54       0.0270
     57  CG        50.2740   30.6090   40.2380 C.3    54  LEU54       0.0019
     58  CD1       50.2400   29.2180   39.5520 C.3    54  LEU54       0.0001
     59  CD2       48.9790   30.8870   41.0000 C.3    54  LEU54       0.0001
     60  N         55.2800   29.9290   45.3300 N.3    56  PHE56      -0.1241
     61  CA        55.4180   28.6260   45.9770 C.3    56  PHE56       0.1605
     62  C         56.7570   28.4910   46.6680 C.2    56  PHE56       0.2264
     63  O         57.6190   29.3500   46.5720 O.2    56  PHE56      -0.2867
     64  CB        55.4670   27.4640   44.9590 C.3    56  PHE56       0.0534
     65  CG        54.2640   27.3210   44.0790 C.ar   56  PHE56      -0.0203
     66  CD1       54.2380   27.9030   42.8130 C.ar   56  PHE56      -0.0042
     67  CD2       53.2150   26.4870   44.4590 C.ar   56  PHE56      -0.0042
     68  CE1       53.1840   27.6430   41.9420 C.ar   56  PHE56      -0.0003
     69  CE2       52.1510   26.2250   43.5870 C.ar   56  PHE56      -0.0003
     70  CZ        52.1410   26.8050   42.3260 C.ar   56  PHE56      -0.0000
     71  N         55.8450   31.7260   39.6580 N.3    69  MET69      -0.1245
     72  CA        55.4250   31.3570   38.3070 C.3    69  MET69       0.1570
     73  C         54.3230   32.2540   37.8430 C.2    69  MET69       0.2261
     74  O         53.4790   32.6460   38.6440 O.2    69  MET69      -0.2867
     75  CB        54.7850   29.9720   38.3210 C.3    69  MET69       0.0387
     76  CG        55.5770   28.8380   37.8790 C.3    69  MET69       0.0595
     77  SD        54.4960   27.4460   38.2500 S.3    69  MET69      -0.1393
     78  CE        55.5990   26.5870   39.3380 C.3    69  MET69       0.0692
     79  N         56.4800   24.9540   33.2060 N.3    84  TYR84      -0.1241
     80  CA        57.1650   24.4950   34.4110 C.3    84  TYR84       0.1605
     81  C         57.3130   22.9840   34.2600 C.2    84  TYR84       0.2264
     82  O         56.3020   22.2650   34.2420 O.2    84  TYR84      -0.2867
     83  CB        56.3490   24.7850   35.6780 C.3    84  TYR84       0.0534
     84  CG        57.0110   24.2160   36.9230 C.ar   84  TYR84      -0.0201
     85  CD1       58.1430   24.8220   37.4780 C.ar   84  TYR84      -0.0009
     86  CD2       56.5560   23.0130   37.4910 C.ar   84  TYR84      -0.0009
     87  CE1       58.8190   24.2290   38.5770 C.ar   84  TYR84       0.0417
     88  CE2       57.2040   22.4230   38.5680 C.ar   84  TYR84       0.0417
     89  CZ        58.3390   23.0310   39.1120 C.ar   84  TYR84       0.1957
     90  OH        58.9570   22.4340   40.1910 O.3    84  TYR84      -0.2866
     91  N         52.0380   23.1920   31.0680 N.3    88  ASN88      -0.1240
     92  CA        50.8700   22.9380   31.9150 C.3    88  ASN88       0.1653
     93  C         49.6610   23.7950   31.6190 C.2    88  ASN88       0.2266
     94  O         49.7950   24.9760   31.2780 O.2    88  ASN88      -0.2867
     95  CB        51.2390   23.2120   33.3840 C.3    88  ASN88       0.1155
     96  CG        52.5110   22.5030   33.8140 C.2    88  ASN88       0.2627
     97  OD1       52.4930   21.3240   34.1220 O.2    88  ASN88      -0.2716
     98  ND2       53.6220   23.2210   33.8170 N.am   88  ASN88      -0.0877
     99  N         45.7010   24.5100   33.4900 N.3    90  PHE90      -0.1241
    100  CA        44.9100   24.1200   34.6410 C.3    90  PHE90       0.1605
    101  C         43.6360   24.9700   34.7460 C.2    90  PHE90       0.2264
    102  O         43.5440   26.0580   34.1380 O.2    90  PHE90      -0.2867
    103  CB        45.7290   24.2200   35.9620 C.3    90  PHE90       0.0534
    104  CG        46.1130   25.6390   36.3640 C.ar   90  PHE90      -0.0203
    105  CD1       47.3630   26.1510   36.0260 C.ar   90  PHE90      -0.0042
    106  CD2       45.2340   26.4380   37.1000 C.ar   90  PHE90      -0.0042
    107  CE1       47.7440   27.4420   36.4180 C.ar   90  PHE90      -0.0003
    108  CE2       45.6050   27.7460   37.5010 C.ar   90  PHE90      -0.0003
    109  CZ        46.8760   28.2400   37.1530 C.ar   90  PHE90      -0.0000
    110  N         40.1580   25.6040   37.8040 N.3    92  ILE92      -0.1245
    111  CA        39.7820   25.4860   39.2170 C.3    92  ILE92       0.1561
    112  C         38.3560   24.9400   39.1660 C.2    92  ILE92       0.2260
    113  O         37.3780   25.6980   39.0990 O.2    92  ILE92      -0.2867
    114  CB        39.8140   26.8810   39.8860 C.3    92  ILE92       0.0252
    115  CG1       41.2610   27.4170   39.8440 C.3    92  ILE92       0.0019
    116  CG2       39.3290   26.8030   41.3370 C.3    92  ILE92       0.0019
    117  CD1       41.3810   28.8670   40.3350 C.3    92  ILE92       0.0001
    118  N         40.2720   25.8060   47.6270 N.3   101  LEU101     -0.1245
    119  CA        40.3860   25.9260   46.1760 C.3   101  LEU101      0.1561
    120  C         40.9100   24.5760   45.6710 C.2   101  LEU101      0.2260
    121  O         41.9020   24.0470   46.1840 O.2   101  LEU101     -0.2867
    122  CB        41.3450   27.0650   45.8140 C.3   101  LEU101      0.0270
    123  CG        41.5170   27.4700   44.3360 C.3   101  LEU101      0.0019
    124  CD1       42.0760   28.8880   44.3190 C.3   101  LEU101      0.0001
    125  CD2       42.4820   26.5040   43.6230 C.3   101  LEU101      0.0001
    126  N         42.1890   22.6230   42.3120 N.3   103  ALA103     -0.1245
    127  CA        42.7170   22.8400   40.9720 C.3   103  ALA103      0.1562
    128  C         42.9460   21.5180   40.2880 C.2   103  ALA103      0.2260
    129  O         43.2580   20.5090   40.9300 O.2   103  ALA103     -0.2867
    130  CB        44.0920   23.6150   41.0190 C.3   103  ALA103      0.0290
    131  N         45.1200   20.1000   36.9700 N.3   105  LEU105     -0.1245
    132  CA        46.1720   20.4700   36.0220 C.3   105  LEU105      0.1561
    133  C         46.5970   19.3180   35.1320 C.2   105  LEU105      0.2260
    134  O         46.5920   18.1540   35.5390 O.2   105  LEU105     -0.2867
    135  CB        47.3920   20.9900   36.8120 C.3   105  LEU105      0.0270
    136  CG        48.6780   21.3860   36.0550 C.3   105  LEU105      0.0019
    137  CD1       49.4360   22.4320   36.8550 C.3   105  LEU105      0.0001
    138  CD2       49.6010   20.1820   35.8370 C.3   105  LEU105      0.0001
    139  N         47.3950   16.3560   37.6170 N.3   116  LEU116     -0.1245
    140  CA        47.6950   16.7100   38.9890 C.3   116  LEU116      0.1561
    141  C         46.4770   17.4370   39.5430 C.2   116  LEU116      0.2260
    142  O         45.8630   18.2460   38.8410 O.2   116  LEU116     -0.2867
    143  CB        48.9150   17.6340   39.0730 C.3   116  LEU116      0.0270
    144  CG        49.1870   18.0210   40.5330 C.3   116  LEU116      0.0019
    145  CD1       50.6550   17.9380   40.8220 C.3   116  LEU116      0.0001
    146  CD2       48.6520   19.4120   40.8030 C.3   116  LEU116      0.0001
    147  N         43.9030   23.4370   48.1080 N.3   120  TYR120     -0.1241
    148  CA        44.5570   24.5520   48.7940 C.3   120  TYR120      0.1605
    149  C         43.5790   25.1600   49.7850 C.2   120  TYR120      0.2264
    150  O         42.3640   25.1930   49.5430 O.2   120  TYR120     -0.2867
    151  CB        44.9710   25.5770   47.7240 C.3   120  TYR120      0.0534
    152  CG        45.8420   24.9520   46.6430 C.ar  120  TYR120     -0.0201
    153  CD1       47.2090   24.7730   46.8500 C.ar  120  TYR120     -0.0009
    154  CD2       45.2770   24.4580   45.4600 C.ar  120  TYR120     -0.0009
    155  CE1       48.0130   24.1030   45.9040 C.ar  120  TYR120      0.0417
    156  CE2       46.0620   23.7900   44.5090 C.ar  120  TYR120      0.0417
    157  CZ        47.4260   23.6170   44.7410 C.ar  120  TYR120      0.1957
    158  OH        48.2110   22.9470   43.8230 O.3   120  TYR120     -0.2866
@<TRIPOS>BOND
     1    91    92    1
     2    94    93    2
     3    93    92    1
     4    92    95    1
     5    79    80    1
     6    95    96    1
     7    99   100    1
     8    96    98   am
     9    96    97    2
    10   102   101    2
    11    82    81    2
    12    81    80    1
    13    80    83    1
    14   100   101    1
    15   100   103    1
    16   133   134    2
    17   133   132    1
    18    83    84    1
    19   138   136    1
    20   103   104    1
    21   132   135    1
    22   132   131    1
    23   105   104   ar
    24   105   107   ar
    25   136   135    1
    26   136   137    1
    27   104   106   ar
    28   107   109   ar
    29    19    17   ar
    30    19    18   ar
    31    44    45    1
    32    84    85   ar
    33    84    86   ar
    34   106   108   ar
    35    17    15   ar
    36   109   108   ar
    37    18    16   ar
    38    85    87   ar
    39    86    88   ar
    40   139   140    1
    41    47    46    2
    42   110   111    1
    43    73    72    1
    44    73    74    2
    45    76    77    1
    46    76    75    1
    47    49    50    1
    48    49    48    1
    49    49    51    1
    50    45    46    1
    51    45    48    1
    52    77    78    1
    53    72    75    1
    54    72    71    1
    55    15    14   ar
    56    16    14   ar
    57    88    89   ar
    58    87    89   ar
    59   142   141    2
    60   140   143    1
    61   140   141    1
    62   143   144    1
    63   113   112    2
    64    89    90    1
    65    14    13    1
    66   112   111    1
    67   111   114    1
    68    58    57    1
    69   115   114    1
    70   115   117    1
    71   114   116    1
    72    57    59    1
    73    57    56    1
    74   128   129    2
    75   128   127    1
    76   144   146    1
    77   144   145    1
    78    13    10    1
    79    52    53    1
    80   127   130    1
    81   127   126    1
    82    56    53    1
    83     9    10    1
    84    10    11    1
    85    26    25    1
    86    53    54    1
    87    68    70   ar
    88    68    66   ar
    89    55    54    2
    90    70    69   ar
    91    42    40    1
    92    66    65   ar
    93    25    27    1
    94    25    24    1
    95    11    12    2
    96    69    67   ar
    97   125   123    1
    98   158   157    1
    99    43    41    1
   100    40    41    1
   101    40    37    1
   102    65    67   ar
   103    65    64    1
   104    24    21    1
   105    38    37    1
   106    38    39    2
   107   124   123    1
   108    37    36    1
   109   123   122    1
   110   156   157   ar
   111   156   154   ar
   112   157   155   ar
   113    64    61    1
   114    34    33    1
   115    20    21    1
   116     8     6    1
   117    60    61    1
   118    21    22    1
   119   154   152   ar
   120   120   119    1
   121   120   121    2
   122     3     2    1
   123     3     4    2
   124   122   119    1
   125   155   153   ar
   126    35    33    1
   127     7     6    1
   128     5     6    1
   129     5     2    1
   130    61    62    1
   131   119   118    1
   132     2     1    1
   133    33    32    1
   134    22    23    2
   135    63    62    2
   136   152   153   ar
   137   152   151    1
   138    32    29    1
   139    29    28    1
   140    29    30    1
   141   151   148    1
   142   147   148    1
   143    30    31    2
   144   148   149    1
   145   150   149    2
