@<TRIPOS>MOLECULE
tmp/2dm6A01.pdb
 109 105 0 0 0
SMALL
GASTEIGER

@<TRIPOS>ATOM
      1  N        -15.0280   61.5680   -9.2650 N.3    51  TYR51      -0.1241
      2  CA       -15.8080   60.8310   -8.2500 C.3    51  TYR51       0.1605
      3  C        -16.4180   59.5240   -8.7660 C.2    51  TYR51       0.2264
      4  O        -16.7530   58.6380   -7.9740 O.2    51  TYR51      -0.2867
      5  CB       -16.8960   61.7190   -7.6150 C.3    51  TYR51       0.0534
      6  CG       -18.1680   61.8890   -8.4350 C.ar   51  TYR51      -0.0201
      7  CD1      -19.1660   60.9090   -8.4350 C.ar   51  TYR51      -0.0009
      8  CD2      -18.3810   63.0400   -9.1890 C.ar   51  TYR51      -0.0009
      9  CE1      -20.3300   61.0640   -9.1920 C.ar   51  TYR51       0.0417
     10  CE2      -19.5380   63.2080   -9.9410 C.ar   51  TYR51       0.0417
     11  CZ       -20.5100   62.2220   -9.9360 C.ar   51  TYR51       0.1957
     12  OH       -21.6510   62.3970  -10.6820 O.3    51  TYR51      -0.2866
     13  N        -14.5180   56.5340   -7.7420 N.3    54  ILE54      -0.1231
     14  CA       -14.7930   56.1070   -6.3710 C.3    54  ILE54       0.1692
     15  C        -16.1780   55.4620   -6.2650 C.2    54  ILE54       0.2591
     16  O        -16.3130   54.3440   -5.7640 O.2    54  ILE54      -0.2718
     17  CB       -14.6860   57.2940   -5.3650 C.3    54  ILE54       0.0266
     18  CG1      -13.3130   57.9830   -5.4420 C.3    54  ILE54       0.0019
     19  CG2      -15.0130   56.8520   -3.9330 C.3    54  ILE54       0.0020
     20  CD1      -12.1070   57.0640   -5.3160 C.3    54  ILE54       0.0001
     21  N        -17.1960   56.1730   -6.7450 N.am   55  ALA55      -0.1980
     22  CA       -18.5910   55.7400   -6.6440 C.3    55  ALA55       0.1597
     23  C        -18.8810   54.4150   -7.3500 C.2    55  ALA55       0.2287
     24  O        -19.8450   53.7310   -7.0120 O.2    55  ALA55      -0.2864
     25  CB       -19.5150   56.8300   -7.1680 C.3    55  ALA55       0.0319
     26  N        -19.4130   50.9880   -5.2280 N.3    58  ARG58      -0.1245
     27  CA       -20.6940   50.6000   -4.6340 C.3    58  ARG58       0.1563
     28  C        -21.6970   50.0300   -5.6400 C.2    58  ARG58       0.2260
     29  O        -22.6720   49.3790   -5.2470 O.2    58  ARG58      -0.2867
     30  CB       -21.3140   51.7810   -3.8850 C.3    58  ARG58       0.0307
     31  CG       -20.7900   51.9620   -2.4710 C.3    58  ARG58       0.0489
     32  CD       -20.9000   53.4130   -2.0140 C.3    58  ARG58       0.2205
     33  NE       -19.8490   54.2520   -2.5960 N.pl3  58  ARG58      -0.0865
     34  CZ       -18.6150   54.3660   -2.1050 C.cat  58  ARG58       0.5346
     35  NH1      -18.2560   53.6950   -1.0150 N.pl3  58  ARG58       0.1354
     36  NH2      -17.7340   55.1500   -2.7070 N.pl3  58  ARG58       0.1354
     37  N        -10.1750   68.9430   -1.0590 N.3   241  CYS241     -0.1221
     38  CA       -11.2560   68.8170   -2.0210 C.3   241  CYS241      0.1808
     39  C        -11.3080   67.4050   -2.5950 C.2   241  CYS241      0.2602
     40  O        -12.3650   66.7740   -2.6270 O.2   241  CYS241     -0.2717
     41  CB       -11.0370   69.8450   -3.1280 C.3   241  CYS241      0.0970
     42  SG       -12.2830   69.8900   -4.4030 S.3   241  CYS241     -0.0800
     43  N        -10.1580   66.9170   -3.0490 N.am  242  GLY242     -0.1942
     44  CA       -10.0480   65.5910   -3.6330 C.3   242  GLY242      0.2014
     45  C         -8.7040   64.9670   -3.3230 C.2   242  GLY242      0.2638
     46  O         -7.8830   65.5580   -2.6180 O.2   242  GLY242     -0.2714
     47  N         -8.4860   63.7660   -3.8460 N.am  243  ALA243     -0.1977
     48  CA        -7.2260   63.0610   -3.6780 C.3   243  ALA243      0.1597
     49  C         -6.9660   62.1780   -4.8890 C.2   243  ALA243      0.2287
     50  O         -6.7030   60.9800   -4.7540 O.2   243  ALA243     -0.2864
     51  CB        -7.2410   62.2350   -2.3950 C.3   243  ALA243      0.0319
     52  N         -4.5320   59.3230   -5.4690 N.3   246  VAL246     -0.1231
     53  CA        -4.8050   58.0490   -4.7950 C.3   246  VAL246      0.1692
     54  C         -6.1780   57.4200   -5.1080 C.2   246  VAL246      0.2592
     55  O         -6.6620   56.6050   -4.3190 O.2   246  VAL246     -0.2718
     56  CB        -4.6000   58.1400   -3.2420 C.3   246  VAL246      0.0266
     57  CG1       -3.1960   58.6180   -2.8940 C.3   246  VAL246      0.0020
     58  CG2       -5.6480   59.0260   -2.5830 C.3   246  VAL246      0.0020
     59  N         -6.7950   57.7800   -6.2430 N.am  247  TYR247     -0.1976
     60  CA        -8.0840   57.1760   -6.6510 C.3   247  TYR247      0.1639
     61  C         -7.9280   55.8570   -7.4090 C.2   247  TYR247      0.2290
     62  O         -8.7090   54.9250   -7.2050 O.2   247  TYR247     -0.2864
     63  CB        -8.9460   58.1220   -7.5060 C.3   247  TYR247      0.0560
     64  CG        -9.4960   59.3570   -6.8190 C.ar  247  TYR247     -0.0198
     65  CD1       -9.4270   59.5180   -5.4360 C.ar  247  TYR247     -0.0009
     66  CD2      -10.1110   60.3600   -7.5660 C.ar  247  TYR247     -0.0009
     67  CE1       -9.9360   60.6580   -4.8190 C.ar  247  TYR247      0.0417
     68  CE2      -10.6220   61.4990   -6.9610 C.ar  247  TYR247      0.0417
     69  CZ       -10.5300   61.6440   -5.5910 C.ar  247  TYR247      0.1957
     70  OH       -11.0360   62.7730   -4.9950 O.3   247  TYR247     -0.2866
     71  N         -6.4130   53.0660   -4.4930 N.3   250  MET250     -0.1245
     72  CA        -6.9720   53.2060   -3.1460 C.3   250  MET250      0.1570
     73  C         -6.4770   52.0910   -2.2240 C.2   250  MET250      0.2261
     74  O         -6.5870   52.1880   -0.9970 O.2   250  MET250     -0.2867
     75  CB        -8.5050   53.1960   -3.2010 C.3   250  MET250      0.0387
     76  CG        -9.1270   54.2890   -4.0720 C.3   250  MET250      0.0595
     77  SD        -9.1350   55.9250   -3.3030 S.3   250  MET250     -0.1393
     78  CE       -10.5530   55.7720   -2.2260 C.3   250  MET250      0.0692
     79  N        -14.0100   68.9720    2.6350 N.3   272  PHE272     -0.1227
     80  CA       -15.3290   69.5380    2.3490 C.3   272  PHE272      0.1736
     81  C        -16.0020   68.8550    1.1600 C.2   272  PHE272      0.2595
     82  O        -15.3380   68.2900    0.2940 O.2   272  PHE272     -0.2718
     83  CB       -15.2560   71.0620    2.1400 C.3   272  PHE272      0.0547
     84  CG       -14.5810   71.4720    0.8570 C.ar  272  PHE272     -0.0202
     85  CD1      -15.3360   71.7980   -0.2650 C.ar  272  PHE272     -0.0042
     86  CD2      -13.1930   71.5240    0.7690 C.ar  272  PHE272     -0.0042
     87  CE1      -14.7200   72.1700   -1.4540 C.ar  272  PHE272     -0.0003
     88  CE2      -12.5680   71.8920   -0.4200 C.ar  272  PHE272     -0.0003
     89  CZ       -13.3360   72.2140   -1.5320 C.ar  272  PHE272     -0.0000
     90  N        -17.3250   68.9060    1.1550 N.am  273  ILE273     -0.1980
     91  CA       -18.1490   68.4130    0.0600 C.3   273  ILE273      0.1595
     92  C        -18.9880   69.6000   -0.4170 C.2   273  ILE273      0.2287
     93  O        -19.5760   70.3160    0.3960 O.2   273  ILE273     -0.2864
     94  CB       -19.0520   67.2330    0.5220 C.3   273  ILE273      0.0276
     95  CG1      -18.1980   66.0620    1.0130 C.3   273  ILE273      0.0022
     96  CG2      -19.9760   66.7600   -0.6000 C.3   273  ILE273      0.0022
     97  CD1      -18.9300   65.1080    1.9660 C.3   273  ILE273      0.0001
     98  N        -21.8270   69.9510   -1.7020 N.3   275  TYR275     -0.1241
     99  CA       -23.2550   69.9030   -1.3790 C.3   275  TYR275      0.1605
    100  C        -23.6130   70.4460    0.0040 C.2   275  TYR275      0.2264
    101  O        -24.7930   70.6260    0.3120 O.2   275  TYR275     -0.2867
    102  CB       -23.7930   68.4810   -1.5650 C.3   275  TYR275      0.0534
    103  CG       -23.4310   67.8680   -2.8960 C.ar  275  TYR275     -0.0201
    104  CD1      -23.7990   68.4790   -4.0990 C.ar  275  TYR275     -0.0009
    105  CD2      -22.7270   66.6680   -2.9540 C.ar  275  TYR275     -0.0009
    106  CE1      -23.4620   67.9090   -5.3260 C.ar  275  TYR275      0.0417
    107  CE2      -22.3890   66.0930   -4.1640 C.ar  275  TYR275      0.0417
    108  CZ       -22.7570   66.7120   -5.3460 C.ar  275  TYR275      0.1957
    109  OH       -22.4120   66.1190   -6.5370 O.3   275  TYR275     -0.2866
@<TRIPOS>BOND
     1    12    11    1
     2    10    11   ar
     3    10     8   ar
     4    11     9   ar
     5     1     2    1
     6     9     7   ar
     7     8     6   ar
     8     3     2    1
     9     3     4    2
    10     6     7   ar
    11     6     5    1
    12     2     5    1
    13    13    14    1
    14    66    68   ar
    15    66    64   ar
    16    63    64    1
    17    63    60    1
    18    61    62    2
    19    61    60    1
    20    23    24    2
    21    23    22    1
    22    25    22    1
    23    68    69   ar
    24    64    65   ar
    25    21    22    1
    26    21    15   am
    27    60    59    1
    28   109   108    1
    29    14    15    1
    30    14    17    1
    31    15    16    2
    32    59    54   am
    33    28    29    2
    34    28    27    1
    35    69    70    1
    36    69    67   ar
    37    52    53    1
    38    18    17    1
    39    18    20    1
    40    65    67   ar
    41    17    19    1
    42   108   106   ar
    43   108   107   ar
    44   106   104   ar
    45    26    27    1
    46    54    53    1
    47    54    55    2
    48    49    50    2
    49    49    48    1
    50    53    56    1
    51    27    30    1
    52    71    72    1
    53    42    41    1
    54   107   105   ar
    55   104   103   ar
    56    76    77    1
    57    76    75    1
    58    30    31    1
    59    47    48    1
    60    47    45   am
    61    48    51    1
    62    44    45    1
    63    44    43    1
    64    45    46    2
    65    77    78    1
    66    56    57    1
    67    56    58    1
    68    75    72    1
    69    72    73    1
    70    41    38    1
    71    43    39   am
    72   105   103   ar
    73   103   102    1
    74    36    34    1
    75    40    39    2
    76    33    34    2
    77    33    32    1
    78    39    38    1
    79    31    32    1
    80    73    74    2
    81    34    35    1
    82    38    37    1
    83    98    99    1
    84   102    99    1
    85    89    87   ar
    86    89    88   ar
    87    87    85   ar
    88    99   100    1
    89    96    94    1
    90    88    86   ar
    91    92    91    1
    92    92    93    2
    93    85    84   ar
    94   100   101    2
    95    91    94    1
    96    91    90    1
    97    82    81    2
    98    94    95    1
    99    86    84   ar
   100    84    83    1
   101    95    97    1
   102    90    81   am
   103    81    80    1
   104    83    80    1
   105    80    79    1
