@<TRIPOS>MOLECULE
tmp/2dn1A02.pdb
 100 93 0 0 0
SMALL
GASTEIGER

@<TRIPOS>ATOM
      1  N         30.7710   48.7250   14.3180 N.3     9  VAL9       -0.1245
      2  CA        31.5260   47.6280   14.9700 C.3     9  VAL9        0.1561
      3  C         32.1630   48.1050   16.2610 C.2     9  VAL9        0.2260
      4  O         32.1760   47.4120   17.2700 O.2     9  VAL9       -0.2867
      5  CB        32.5780   47.0650   14.0240 C.3     9  VAL9        0.0252
      6  CG1       33.4650   46.0490   14.7130 C.3     9  VAL9        0.0019
      7  CG2       31.8470   46.4420   12.8420 C.3     9  VAL9        0.0019
      8  N         29.6410   48.2630   18.9730 N.3    12  ALA12      -0.1231
      9  CA        29.2970   46.9290   19.5210 C.3    12  ALA12       0.1694
     10  C         30.4110   46.4560   20.4450 C.2    12  ALA12       0.2592
     11  O         30.2030   45.9320   21.5290 O.2    12  ALA12      -0.2718
     12  CB        29.0430   45.9450   18.3920 C.3    12  ALA12       0.0304
     13  N         31.6450   46.6060   19.9730 N.am   13  TRP13      -0.1976
     14  CA        32.8520   46.2370   20.7300 C.3    13  TRP13       0.1640
     15  C         32.8230   46.9010   22.0970 C.2    13  TRP13       0.2290
     16  O         33.0970   46.2820   23.1370 O.2    13  TRP13      -0.2864
     17  CB        34.1180   46.6180   19.9340 C.3    13  TRP13       0.0576
     18  CG        35.3160   46.6580   20.8300 C.ar   13  TRP13       0.0006
     19  CD1       36.0450   45.5780   21.2240 C.ar   13  TRP13       0.0946
     20  CD2       35.8980   47.8190   21.4460 C.ar   13  TRP13       0.0152
     21  NE1       37.0650   46.0150   22.0690 N.ar   13  TRP13      -0.2442
     22  CE2       36.9830   47.3720   22.2030 C.ar   13  TRP13       0.0810
     23  CE3       35.5770   49.1920   21.4140 C.ar   13  TRP13       0.0012
     24  CZ2       37.7870   48.2510   22.9440 C.ar   13  TRP13       0.0191
     25  CZ3       36.3700   50.0730   22.1450 C.ar   13  TRP13       0.0001
     26  CH2       37.4520   49.5900   22.8890 C.ar   13  TRP13       0.0015
     27  N         30.0130   45.4320   24.4060 N.3    16  VAL16      -0.1245
     28  CA        30.4080   44.1030   24.8740 C.3    16  VAL16       0.1561
     29  C         31.4450   44.2350   25.9890 C.2    16  VAL16       0.2260
     30  O         31.3790   43.5650   27.0240 O.2    16  VAL16      -0.2867
     31  CB        30.9810   43.2650   23.7090 C.3    16  VAL16       0.0252
     32  CG1       31.5950   42.0040   24.2740 C.3    16  VAL16       0.0019
     33  CG2       29.8840   42.9470   22.6890 C.3    16  VAL16       0.0019
     34  N         33.8300   40.1990   26.3160 N.3    20  ALA20      -0.1245
     35  CA        34.1150   39.5750   25.0210 C.3    20  ALA20       0.1562
     36  C         34.5890   38.1270   25.1000 C.2    20  ALA20       0.2260
     37  O         34.1390   37.2730   24.3090 O.2    20  ALA20      -0.2867
     38  CB        35.1740   40.3820   24.2820 C.3    20  ALA20       0.0290
     39  N         38.1390   35.7990   20.8520 N.3    62  ALA62      -0.1245
     40  CA        37.7750   37.1880   21.1040 C.3    62  ALA62       0.1562
     41  C         38.9920   38.1010   20.9630 C.2    62  ALA62       0.2260
     42  O         38.8730   39.1540   20.3420 O.2    62  ALA62      -0.2867
     43  CB        37.2310   37.3450   22.5200 C.3    62  ALA62       0.0290
     44  N         39.7050   38.7030   17.3140 N.3    65  LEU65      -0.1231
     45  CA        38.7010   39.5980   16.7030 C.3    65  LEU65       0.1693
     46  C         38.9470   41.0150   17.1470 C.2    65  LEU65       0.2592
     47  O         38.8030   41.9200   16.3240 O.2    65  LEU65      -0.2718
     48  CB        37.3090   39.1020   17.1070 C.3    65  LEU65       0.0284
     49  CG        36.8960   37.8160   16.3940 C.3    65  LEU65       0.0019
     50  CD1       35.6070   37.2730   17.0100 C.3    65  LEU65       0.0001
     51  CD2       36.7970   38.0130   14.8770 C.3    65  LEU65       0.0001
     52  N         39.3100   41.2520   18.4160 N.am   66  THR66      -0.1953
     53  CA        39.6100   42.6110   18.8380 C.3    66  THR66       0.1897
     54  C         40.8630   43.1700   18.1960 C.2    66  THR66       0.2313
     55  O         40.9130   44.3480   17.8390 O.2    66  THR66      -0.2863
     56  CB        39.6500   42.6340   20.3930 C.3    66  THR66       0.1794
     57  OG1       38.4440   42.0510   20.8900 O.3    66  THR66      -0.2208
     58  CG2       39.5660   44.0930   20.7810 C.3    66  THR66       0.0378
     59  N         39.6690   44.2770   14.7420 N.3    69  VAL69      -0.1245
     60  CA        38.9910   45.5630   14.8020 C.3    69  VAL69       0.1561
     61  C         39.9570   46.7130   15.1170 C.2    69  VAL69       0.2260
     62  O         39.7830   47.8350   14.6020 O.2    69  VAL69      -0.2867
     63  CB        37.8970   45.6700   15.8770 C.3    69  VAL69       0.0252
     64  CG1       36.6180   44.9780   15.5020 C.3    69  VAL69       0.0019
     65  CG2       38.3640   45.2020   17.2060 C.3    69  VAL69       0.0019
     66  N         26.0750   38.0350   19.9520 N.3   108  LEU108     -0.1245
     67  CA        25.9930   39.4820   20.1190 C.3   108  LEU108      0.1561
     68  C         24.5050   39.8910   20.1990 C.2   108  LEU108      0.2260
     69  O         24.1450   40.7170   21.0260 O.2   108  LEU108     -0.2867
     70  CB        26.7340   40.2130   18.9980 C.3   108  LEU108      0.0270
     71  CG        28.2590   40.0750   18.9040 C.3   108  LEU108      0.0019
     72  CD1       28.8900   40.8210   17.7140 C.3   108  LEU108      0.0001
     73  CD2       28.9410   40.5520   20.1710 C.3   108  LEU108      0.0001
     74  N         28.4010   44.2680   11.4680 N.3   124  LEU124     -0.1245
     75  CA        29.0800   43.1580   12.0930 C.3   124  LEU124      0.1561
     76  C         29.2070   41.9800   11.1460 C.2   124  LEU124      0.2260
     77  O         30.2310   41.3200   11.0960 O.2   124  LEU124     -0.2867
     78  CB        28.2620   42.7030   13.3100 C.3   124  LEU124      0.0270
     79  CG        28.3080   43.6700   14.5060 C.3   124  LEU124      0.0019
     80  CD1       27.1910   43.3490   15.4770 C.3   124  LEU124      0.0001
     81  CD2       29.6780   43.6090   15.1700 C.3   124  LEU124      0.0001
     82  N         32.0680   42.8230    8.8710 N.3   127  PHE127     -0.1227
     83  CA        33.3430   42.6620    9.5850 C.3   127  PHE127      0.1736
     84  C         33.7170   41.1970    9.7200 C.2   127  PHE127      0.2595
     85  O         34.8520   40.7980    9.4330 O.2   127  PHE127     -0.2718
     86  CB        33.2030   43.3470   10.9430 C.3   127  PHE127      0.0547
     87  CG        34.3290   43.0020   11.9040 C.ar  127  PHE127     -0.0202
     88  CD1       35.5880   43.5210   11.6980 C.ar  127  PHE127     -0.0042
     89  CD2       34.1140   42.1320   12.9700 C.ar  127  PHE127     -0.0042
     90  CE1       36.6340   43.1620   12.5570 C.ar  127  PHE127     -0.0003
     91  CE2       35.1440   41.7930   13.8320 C.ar  127  PHE127     -0.0003
     92  CZ        36.4120   42.2970   13.6130 C.ar  127  PHE127     -0.0000
     93  N         32.7640   40.3450   10.1490 N.am  128  LEU128     -0.1980
     94  CA        33.1080   38.9290   10.3110 C.3   128  LEU128      0.1596
     95  C         33.3790   38.2420    8.9880 C.2   128  LEU128      0.2287
     96  O         34.2660   37.3880    8.9440 O.2   128  LEU128     -0.2864
     97  CB        32.0010   38.2190   11.0790 C.3   128  LEU128      0.0297
     98  CG        31.8660   38.7110   12.5310 C.3   128  LEU128      0.0022
     99  CD1       30.5820   38.1380   13.1480 C.3   128  LEU128      0.0001
    100  CD2       33.0790   38.3350   13.3640 C.3   128  LEU128      0.0001
@<TRIPOS>BOND
     1    82    83    1
     2    96    95    2
     3    95    94    1
     4    85    84    2
     5    83    84    1
     6    83    86    1
     7    84    93   am
     8    93    94    1
     9    94    97    1
    10    86    87    1
    11    97    98    1
    12    77    76    2
    13    76    75    1
    14    74    75    1
    15    88    87   ar
    16    88    90   ar
    17    87    89   ar
    18    75    78    1
    19    98    99    1
    20    98   100    1
    21    90    92   ar
    22     7     5    1
    23    89    91   ar
    24    78    79    1
    25    92    91   ar
    26     5     6    1
    27     5     2    1
    28     1     2    1
    29    79    81    1
    30    79    80    1
    31    62    61    2
    32    59    60    1
    33    60    61    1
    34    60    63    1
    35    51    49    1
    36     2     3    1
    37    64    63    1
    38    63    65    1
    39     3     4    2
    40    47    46    2
    41    49    50    1
    42    49    48    1
    43    45    48    1
    44    45    46    1
    45    45    44    1
    46    46    52   am
    47    72    71    1
    48    55    54    2
    49    54    53    1
    50    12     9    1
    51    52    53    1
    52    53    56    1
    53    71    70    1
    54    71    73    1
    55     8     9    1
    56    70    67    1
    57     9    10    1
    58    17    14    1
    59    17    18    1
    60    66    67    1
    61    13    10   am
    62    13    14    1
    63    67    68    1
    64    68    69    2
    65    42    41    2
    66    56    58    1
    67    56    57    1
    68    10    11    2
    69    14    15    1
    70    18    19   ar
    71    18    20   ar
    72    39    40    1
    73    41    40    1
    74    40    43    1
    75    19    21   ar
    76    23    20   ar
    77    23    25   ar
    78    20    22   ar
    79    21    22   ar
    80    15    16    2
    81    25    26   ar
    82    22    24   ar
    83    33    31    1
    84    26    24   ar
    85    31    32    1
    86    31    28    1
    87    38    35    1
    88    37    36    2
    89    27    28    1
    90    28    29    1
    91    35    36    1
    92    35    34    1
    93    29    30    2
