@<TRIPOS>MOLECULE
tmp/2dn1A01.pdb
 98 91 0 0 0
SMALL
GASTEIGER

@<TRIPOS>ATOM
      1  N         30.0130   45.4320   24.4060 N.3    16  VAL16      -0.1245
      2  CA        30.4080   44.1030   24.8740 C.3    16  VAL16       0.1561
      3  C         31.4450   44.2350   25.9890 C.2    16  VAL16       0.2260
      4  O         31.3790   43.5650   27.0240 O.2    16  VAL16      -0.2867
      5  CB        30.9810   43.2650   23.7090 C.3    16  VAL16       0.0252
      6  CG1       31.5950   42.0040   24.2740 C.3    16  VAL16       0.0019
      7  CG2       29.8840   42.9470   22.6890 C.3    16  VAL16       0.0019
      8  N         33.8300   40.1990   26.3160 N.3    20  ALA20      -0.1245
      9  CA        34.1150   39.5750   25.0210 C.3    20  ALA20       0.1562
     10  C         34.5890   38.1270   25.1000 C.2    20  ALA20       0.2260
     11  O         34.1390   37.2730   24.3090 O.2    20  ALA20      -0.2867
     12  CB        35.1740   40.3820   24.2820 C.3    20  ALA20       0.0290
     13  N         31.7190   35.8610   25.8200 N.3    23  TYR23      -0.1227
     14  CA        30.8690   35.7260   24.6550 C.3    23  TYR23       0.1736
     15  C         31.5530   34.8920   23.5800 C.2    23  TYR23       0.2596
     16  O         30.8490   34.1640   22.8690 O.2    23  TYR23      -0.2718
     17  CB        30.4560   37.0950   24.1150 C.3    23  TYR23       0.0548
     18  CG        29.6100   37.9530   25.0580 C.ar   23  TYR23      -0.0200
     19  CD1       29.2870   39.2500   24.6310 C.ar   23  TYR23      -0.0009
     20  CD2       29.1640   37.5030   26.2810 C.ar   23  TYR23      -0.0009
     21  CE1       28.5200   40.0950   25.4350 C.ar   23  TYR23       0.0417
     22  CE2       28.4160   38.3510   27.0910 C.ar   23  TYR23       0.0417
     23  CZ        28.1050   39.6170   26.6560 C.ar   23  TYR23       0.1957
     24  OH        27.3610   40.4450   27.4610 O.3    23  TYR23      -0.2866
     25  N         32.8700   34.9560   23.4380 N.am   24  GLY24      -0.1957
     26  CA        33.5340   34.0630   22.4860 C.3    24  GLY24       0.1869
     27  C         33.2860   32.5850   22.8200 C.2    24  GLY24       0.2309
     28  O         33.0610   31.7630   21.9310 O.2    24  GLY24      -0.2863
     29  N         38.1390   35.7990   20.8520 N.3    62  ALA62      -0.1245
     30  CA        37.7750   37.1880   21.1040 C.3    62  ALA62       0.1562
     31  C         38.9920   38.1010   20.9630 C.2    62  ALA62       0.2260
     32  O         38.8730   39.1540   20.3420 O.2    62  ALA62      -0.2867
     33  CB        37.2310   37.3450   22.5200 C.3    62  ALA62       0.0290
     34  N         39.7050   38.7030   17.3140 N.3    65  LEU65      -0.1231
     35  CA        38.7010   39.5980   16.7030 C.3    65  LEU65       0.1693
     36  C         38.9470   41.0150   17.1470 C.2    65  LEU65       0.2592
     37  O         38.8030   41.9200   16.3240 O.2    65  LEU65      -0.2718
     38  CB        37.3090   39.1020   17.1070 C.3    65  LEU65       0.0284
     39  CG        36.8960   37.8160   16.3940 C.3    65  LEU65       0.0019
     40  CD1       35.6070   37.2730   17.0100 C.3    65  LEU65       0.0001
     41  CD2       36.7970   38.0130   14.8770 C.3    65  LEU65       0.0001
     42  N         39.3100   41.2520   18.4160 N.am   66  THR66      -0.1953
     43  CA        39.6100   42.6110   18.8380 C.3    66  THR66       0.1897
     44  C         40.8630   43.1700   18.1960 C.2    66  THR66       0.2313
     45  O         40.9130   44.3480   17.8390 O.2    66  THR66      -0.2863
     46  CB        39.6500   42.6340   20.3930 C.3    66  THR66       0.1794
     47  OG1       38.4440   42.0510   20.8900 O.3    66  THR66      -0.2208
     48  CG2       39.5660   44.0930   20.7810 C.3    66  THR66       0.0378
     49  N         28.7300   33.9220   16.3110 N.3   104  LEU104     -0.1245
     50  CA        29.2140   35.1500   16.9310 C.3   104  LEU104      0.1561
     51  C         28.1400   36.2410   16.8200 C.2   104  LEU104      0.2260
     52  O         27.8540   36.9440   17.7690 O.2   104  LEU104     -0.2867
     53  CB        30.4940   35.6280   16.2160 C.3   104  LEU104      0.0270
     54  CG        31.7370   34.7720   16.5800 C.3   104  LEU104      0.0019
     55  CD1       32.8120   35.0200   15.5300 C.3   104  LEU104      0.0001
     56  CD2       32.2900   35.0390   17.9580 C.3   104  LEU104      0.0001
     57  N         25.3440   35.3780   19.2460 N.3   107  THR107     -0.1203
     58  CA        25.7450   35.7240   20.6050 C.3   107  THR107      0.1994
     59  C         25.6400   37.2090   20.9100 C.2   107  THR107      0.2617
     60  O         25.1540   37.6380   21.9490 O.2   107  THR107     -0.2717
     61  CB        27.1880   35.2420   20.8350 C.3   107  THR107      0.1784
     62  OG1       27.2510   33.7960   20.6290 O.3   107  THR107     -0.2211
     63  CG2       27.6930   35.4790   22.2510 C.3   107  THR107      0.0376
     64  N         26.0750   38.0350   19.9520 N.am  108  LEU108     -0.1979
     65  CA        25.9930   39.4820   20.1190 C.3   108  LEU108      0.1596
     66  C         24.5050   39.8910   20.1990 C.2   108  LEU108      0.2287
     67  O         24.1450   40.7170   21.0260 O.2   108  LEU108     -0.2864
     68  CB        26.7340   40.2130   18.9980 C.3   108  LEU108      0.0297
     69  CG        28.2590   40.0750   18.9040 C.3   108  LEU108      0.0022
     70  CD1       28.8900   40.8210   17.7140 C.3   108  LEU108      0.0001
     71  CD2       28.9410   40.5520   20.1710 C.3   108  LEU108      0.0001
     72  N         28.4010   44.2680   11.4680 N.3   124  LEU124     -0.1245
     73  CA        29.0800   43.1580   12.0930 C.3   124  LEU124      0.1561
     74  C         29.2070   41.9800   11.1460 C.2   124  LEU124      0.2260
     75  O         30.2310   41.3200   11.0960 O.2   124  LEU124     -0.2867
     76  CB        28.2620   42.7030   13.3100 C.3   124  LEU124      0.0270
     77  CG        28.3080   43.6700   14.5060 C.3   124  LEU124      0.0019
     78  CD1       27.1910   43.3490   15.4770 C.3   124  LEU124      0.0001
     79  CD2       29.6780   43.6090   15.1700 C.3   124  LEU124      0.0001
     80  N         32.0680   42.8230    8.8710 N.3   127  PHE127     -0.1227
     81  CA        33.3430   42.6620    9.5850 C.3   127  PHE127      0.1736
     82  C         33.7170   41.1970    9.7200 C.2   127  PHE127      0.2595
     83  O         34.8520   40.7980    9.4330 O.2   127  PHE127     -0.2718
     84  CB        33.2030   43.3470   10.9430 C.3   127  PHE127      0.0547
     85  CG        34.3290   43.0020   11.9040 C.ar  127  PHE127     -0.0202
     86  CD1       35.5880   43.5210   11.6980 C.ar  127  PHE127     -0.0042
     87  CD2       34.1140   42.1320   12.9700 C.ar  127  PHE127     -0.0042
     88  CE1       36.6340   43.1620   12.5570 C.ar  127  PHE127     -0.0003
     89  CE2       35.1440   41.7930   13.8320 C.ar  127  PHE127     -0.0003
     90  CZ        36.4120   42.2970   13.6130 C.ar  127  PHE127     -0.0000
     91  N         32.7640   40.3450   10.1490 N.am  128  LEU128     -0.1980
     92  CA        33.1080   38.9290   10.3110 C.3   128  LEU128      0.1596
     93  C         33.3790   38.2420    8.9880 C.2   128  LEU128      0.2287
     94  O         34.2660   37.3880    8.9440 O.2   128  LEU128     -0.2864
     95  CB        32.0010   38.2190   11.0790 C.3   128  LEU128      0.0297
     96  CG        31.8660   38.7110   12.5310 C.3   128  LEU128      0.0022
     97  CD1       30.5820   38.1380   13.1480 C.3   128  LEU128      0.0001
     98  CD2       33.0790   38.3350   13.3640 C.3   128  LEU128      0.0001
@<TRIPOS>BOND
     1    80    81    1
     2    94    93    2
     3    93    92    1
     4    83    82    2
     5    81    82    1
     6    81    84    1
     7    82    91   am
     8    91    92    1
     9    92    95    1
    10    84    85    1
    11    95    96    1
    12    75    74    2
    13    74    73    1
    14    72    73    1
    15    86    85   ar
    16    86    88   ar
    17    85    87   ar
    18    73    76    1
    19    96    97    1
    20    96    98    1
    21    88    90   ar
    22    87    89   ar
    23    76    77    1
    24    90    89   ar
    25    77    79    1
    26    77    78    1
    27    41    39    1
    28    55    54    1
    29    53    54    1
    30    53    50    1
    31    49    50    1
    32    37    36    2
    33    39    40    1
    34    39    38    1
    35    54    56    1
    36    35    38    1
    37    35    36    1
    38    35    34    1
    39    51    50    1
    40    51    52    2
    41    36    42   am
    42    70    69    1
    43    45    44    2
    44    44    43    1
    45    42    43    1
    46    43    46    1
    47    69    68    1
    48    69    71    1
    49    68    65    1
    50    57    58    1
    51    64    65    1
    52    64    59   am
    53    65    66    1
    54    66    67    2
    55    32    31    2
    56    46    48    1
    57    46    47    1
    58    58    61    1
    59    58    59    1
    60    62    61    1
    61    61    63    1
    62    29    30    1
    63    59    60    2
    64    31    30    1
    65    30    33    1
    66    28    27    2
    67    26    27    1
    68    26    25    1
    69     7     5    1
    70    16    15    2
    71    25    15   am
    72    15    14    1
    73     5     6    1
    74     5     2    1
    75    17    14    1
    76    17    18    1
    77    12     9    1
    78    11    10    2
    79     1     2    1
    80    19    18   ar
    81    19    21   ar
    82    14    13    1
    83     2     3    1
    84     9    10    1
    85     9     8    1
    86    18    20   ar
    87    21    23   ar
    88     3     4    2
    89    20    22   ar
    90    23    22   ar
    91    23    24    1
