@<TRIPOS>MOLECULE
tmp/2do2A00.pdb
 90 84 0 0 0
SMALL
GASTEIGER

@<TRIPOS>ATOM
      1  N         15.7500   10.2970   -6.8970 N.3     2  LEU2       -0.1231
      2  CA        17.1290    9.9350   -6.6070 C.3     2  LEU2        0.1693
      3  C         17.8660   11.0080   -5.8120 C.2     2  LEU2        0.2591
      4  O         18.8050   10.7090   -5.0700 O.2     2  LEU2       -0.2718
      5  CB        17.8630    9.6390   -7.9130 C.3     2  LEU2        0.0284
      6  CG        17.2360    8.4630   -8.6610 C.3     2  LEU2        0.0019
      7  CD1       17.8920    8.2860  -10.0200 C.3     2  LEU2        0.0001
      8  CD2       17.3880    7.2070   -7.8250 C.3     2  LEU2        0.0001
      9  N         17.4360   12.2560   -5.9580 N.am    3  LEU3       -0.1980
     10  CA        18.0580   13.3610   -5.2340 C.3     3  LEU3        0.1596
     11  C         17.8750   13.2030   -3.7340 C.2     3  LEU3        0.2287
     12  O         18.8280   13.3250   -2.9610 O.2     3  LEU3       -0.2864
     13  CB        17.4500   14.6930   -5.6710 C.3     3  LEU3        0.0297
     14  CG        18.3960   15.6540   -6.3920 C.3     3  LEU3        0.0022
     15  CD1       18.9130   15.0060   -7.6720 C.3     3  LEU3        0.0001
     16  CD2       17.6560   16.9460   -6.6980 C.3     3  LEU3        0.0001
     17  N         19.7050    9.8350   -2.4000 N.3     6  GLY6       -0.1225
     18  CA        21.1600    9.9150   -2.3340 C.3     6  GLY6        0.1811
     19  C         21.6560   10.7630   -1.1710 C.2     6  GLY6        0.2280
     20  O         22.7150   10.5160   -0.5970 O.2     6  GLY6       -0.2866
     21  N         23.7900    9.5310    2.1860 N.3    10  LEU10      -0.1245
     22  CA        25.0010   10.2320    2.6170 C.3    10  LEU10       0.1561
     23  C         24.9450   10.6010    4.1030 C.2    10  LEU10       0.2260
     24  O         25.9070   10.3860    4.8470 O.2    10  LEU10      -0.2867
     25  CB        25.2170   11.4980    1.7770 C.3    10  LEU10       0.0270
     26  CG        26.4930   12.3010    2.0790 C.3    10  LEU10       0.0019
     27  CD1       27.7400   11.4280    1.8540 C.3    10  LEU10       0.0001
     28  CD2       26.5400   13.5140    1.1770 C.3    10  LEU10       0.0001
     29  N         28.7500    7.9630   -0.4940 N.3    16  LEU16      -0.1231
     30  CA        27.9620    8.5750   -1.5570 C.3    16  LEU16       0.1693
     31  C         27.1610    7.4920   -2.2830 C.2    16  LEU16       0.2592
     32  O         27.6750    6.4010   -2.5220 O.2    16  LEU16      -0.2718
     33  CB        28.8930    9.2800   -2.5450 C.3    16  LEU16       0.0284
     34  CG        29.7020   10.4550   -1.9870 C.3    16  LEU16       0.0019
     35  CD1       30.9970   10.6220   -2.7760 C.3    16  LEU16       0.0001
     36  CD2       28.8660   11.7170   -2.0390 C.3    16  LEU16       0.0001
     37  N         25.9080    7.7870   -2.6260 N.am   17  ALA17      -0.1966
     38  CA        25.0670    6.8240   -3.3400 C.3    17  ALA17       0.1728
     39  C         25.8680    6.2630   -4.5160 C.2    17  ALA17       0.2616
     40  O         26.0160    5.0510   -4.6650 O.2    17  ALA17      -0.2715
     41  CB        23.7990    7.5000   -3.8370 C.3    17  ALA17       0.0334
     42  N         26.3720    7.1600   -5.3550 N.am   18  ILE18      -0.1977
     43  CA        27.2050    6.7830   -6.4900 C.3    18  ILE18       0.1596
     44  C         28.5960    7.1600   -5.9940 C.2    18  ILE18       0.2287
     45  O         28.7990    8.2740   -5.5110 O.2    18  ILE18      -0.2864
     46  CB        26.8640    7.6260   -7.7470 C.3    18  ILE18       0.0276
     47  CG1       25.4110    7.3890   -8.1580 C.3    18  ILE18       0.0022
     48  CG2       27.7950    7.2620   -8.8980 C.3    18  ILE18       0.0022
     49  CD1       24.9480    8.2880   -9.2740 C.3    18  ILE18       0.0001
     50  N         26.7920    2.7440   -3.6950 N.3    21  TYR21      -0.1227
     51  CA        25.5880    1.9110   -3.7430 C.3    21  TYR21       0.1736
     52  C         24.9280    1.8780   -5.1120 C.2    21  TYR21       0.2596
     53  O         23.8190    1.3510   -5.2670 O.2    21  TYR21      -0.2718
     54  CB        24.5850    2.4280   -2.7130 C.3    21  TYR21       0.0548
     55  CG        25.0430    2.2640   -1.2770 C.ar   21  TYR21      -0.0200
     56  CD1       25.0490    1.0030   -0.6670 C.ar   21  TYR21      -0.0009
     57  CD2       25.4470    3.3680   -0.5170 C.ar   21  TYR21      -0.0009
     58  CE1       25.4330    0.8480    0.6620 C.ar   21  TYR21       0.0417
     59  CE2       25.8370    3.2180    0.8220 C.ar   21  TYR21       0.0417
     60  CZ        25.8230    1.9540    1.4010 C.ar   21  TYR21       0.1957
     61  OH        26.1640    1.7940    2.7230 O.3    21  TYR21      -0.2866
     62  N         25.6140    2.4300   -6.1070 N.am   22  SER22      -0.1952
     63  CA        25.0560    2.4780   -7.4540 C.3    22  SER22       0.1924
     64  C         25.2850    1.1820   -8.2230 C.2    22  SER22       0.2314
     65  O         24.4980    0.8240   -9.0900 O.2    22  SER22      -0.2863
     66  CB        25.6550    3.6560   -8.2380 C.3    22  SER22       0.2116
     67  OG        27.0760    3.6050   -8.2800 O.3    22  SER22      -0.2180
     68  N         21.4210   -0.8000   -7.6400 N.3    29  GLY29      -0.1210
     69  CA        21.5730   -0.0840   -8.9020 C.3    29  GLY29       0.1956
     70  C         20.7580   -0.8300   -9.9640 C.2    29  GLY29       0.2612
     71  O         19.5260   -0.8620   -9.9150 O.2    29  GLY29      -0.2717
     72  N         21.4550   -1.4420  -10.9190 N.am   30  GLY30      -0.1942
     73  CA        20.8020   -2.1870  -11.9390 C.3    30  GLY30       0.2014
     74  C         20.2940   -3.4560  -11.2730 C.2    30  GLY30       0.2639
     75  O         20.5980   -4.5690  -11.7110 O.2    30  GLY30      -0.2714
     76  N         19.5020   -3.2880  -10.2100 N.am   31  CYS31      -0.1967
     77  CA        18.9470   -4.4150   -9.4950 C.3    31  CYS31       0.1712
     78  C         18.1370   -5.0350  -10.6000 C.2    31  CYS31       0.2296
     79  O         17.5490   -4.3300  -11.4400 O.2    31  CYS31      -0.2864
     80  CB        18.0340   -4.0280   -8.2650 C.3    31  CYS31       0.0983
     81  SG        16.5470   -2.9640   -8.4750 S.3    31  CYS31      -0.0798
     82  N         12.0450    7.3220   -9.1690 N.3    60  LYS60      -0.1245
     83  CA        13.2610    7.9820   -9.6430 C.3    60  LYS60       0.1561
     84  C         13.1430    9.4920   -9.8360 C.2    60  LYS60       0.2260
     85  O         14.1020   10.2300   -9.5970 O.2    60  LYS60      -0.2867
     86  CB        13.7400    7.3550  -10.9700 C.3    60  LYS60       0.0271
     87  CG        14.2970    5.9330  -10.8520 C.3    60  LYS60       0.0035
     88  CD        15.0760    5.4780  -12.1070 C.3    60  LYS60       0.0206
     89  CE        14.1680    5.1780  -13.3090 C.3    60  LYS60       0.1093
     90  NZ        14.9200    4.5700  -14.4640 N.3    60  LYS60      -0.1314
@<TRIPOS>BOND
     1    90    89    1
     2    89    88    1
     3    88    87    1
     4    73    74    1
     5    73    72    1
     6    75    74    2
     7    79    78    2
     8    74    76   am
     9    86    87    1
    10    86    83    1
    11    72    70   am
    12    78    77    1
    13    76    77    1
    14     7     6    1
    15    70    71    2
    16    70    69    1
    17    84    83    1
    18    84    85    2
    19    83    82    1
    20    77    80    1
    21    49    47    1
    22    65    64    2
    23    69    68    1
    24    48    46    1
    25     6     5    1
    26     6     8    1
    27    81    80    1
    28    67    66    1
    29    66    63    1
    30    64    63    1
    31    47    46    1
    32     5     2    1
    33    46    43    1
    34    15    14    1
    35    63    62    1
    36     1     2    1
    37    16    14    1
    38     2     3    1
    39    43    44    1
    40    43    42    1
    41    14    13    1
    42    62    52   am
    43    44    45    2
    44     9     3   am
    45     9    10    1
    46     3     4    2
    47    13    10    1
    48    42    39   am
    49    53    52    2
    50    10    11    1
    51    52    51    1
    52    40    39    2
    53    39    38    1
    54    41    38    1
    55    51    50    1
    56    51    54    1
    57    11    12    2
    58    38    37    1
    59    35    34    1
    60    54    55    1
    61    37    31   am
    62    33    34    1
    63    33    30    1
    64    32    31    2
    65    17    18    1
    66    18    19    1
    67    31    30    1
    68    36    34    1
    69    30    29    1
    70    55    56   ar
    71    55    57   ar
    72    19    20    2
    73    56    58   ar
    74    57    59   ar
    75    58    60   ar
    76    59    60   ar
    77    28    26    1
    78    60    61    1
    79    25    26    1
    80    25    22    1
    81    27    26    1
    82    21    22    1
    83    22    23    1
    84    23    24    2
