@<TRIPOS>MOLECULE
tmp/2dojA01.pdb
 72 66 0 0 0
SMALL
GASTEIGER

@<TRIPOS>ATOM
      1  N          6.6020   -0.8800   19.2310 N.3   127  ASN127     -0.1225
      2  CA         5.8470    0.2470   19.7370 C.3   127  ASN127      0.1785
      3  C          4.8520    0.8060   18.7500 C.2   127  ASN127      0.2597
      4  O          3.7370    1.1600   19.1260 O.2   127  ASN127     -0.2718
      5  CB         6.7790    1.3630   20.1970 C.3   127  ASN127      0.1169
      6  CG         7.5080    1.0220   21.4690 C.2   127  ASN127      0.2627
      7  OD1        7.1040    0.1290   22.1940 O.2   127  ASN127     -0.2716
      8  ND2        8.5920    1.7480   21.7550 N.am  127  ASN127     -0.0877
      9  N          5.2310    0.9020   17.4880 N.am  128  ILE128     -0.1980
     10  CA         4.3240    1.5170   16.5410 C.3   128  ILE128      0.1595
     11  C          3.1790    0.5660   16.2410 C.2   128  ILE128      0.2287
     12  O          2.0270    0.8970   16.5050 O.2   128  ILE128     -0.2864
     13  CB         5.0790    2.0460   15.2680 C.3   128  ILE128      0.0276
     14  CG1        5.8560    3.3300   15.5900 C.3   128  ILE128      0.0022
     15  CG2        4.1380    2.2820   14.1300 C.3   128  ILE128      0.0022
     16  CD1        5.0740    4.3260   16.4340 C.3   128  ILE128      0.0001
     17  N          1.0570   -0.3260   19.3510 N.3   131  GLY131     -0.1210
     18  CA         0.3800    0.8930   19.7360 C.3   131  GLY131      0.1956
     19  C         -0.8780    0.9890   18.8940 C.2   131  GLY131      0.2611
     20  O         -1.9700    1.2030   19.4140 O.2   131  GLY131     -0.2717
     21  N         -0.7380    0.8100   17.5870 N.am  132  LEU132     -0.1979
     22  CA        -1.9010    0.8410   16.7020 C.3   132  LEU132      0.1596
     23  C         -2.8830   -0.3000   16.9790 C.2   132  LEU132      0.2287
     24  O         -4.0920   -0.0940   16.9890 O.2   132  LEU132     -0.2864
     25  CB        -1.4780    0.7680   15.2250 C.3   132  LEU132      0.0297
     26  CG        -0.6380    1.9100   14.6500 C.3   132  LEU132      0.0022
     27  CD1        0.0350    1.4680   13.3790 C.3   132  LEU132      0.0001
     28  CD2       -1.4780    3.1270   14.3950 C.3   132  LEU132      0.0001
     29  N         -4.8540    0.2730   20.1570 N.3   135  ASN135     -0.1240
     30  CA        -5.8020    1.3680   19.9820 C.3   135  ASN135      0.1653
     31  C         -7.0120    0.9680   19.1690 C.2   135  ASN135      0.2266
     32  O         -8.1320    1.2350   19.5980 O.2   135  ASN135     -0.2867
     33  CB        -5.1130    2.5670   19.3370 C.3   135  ASN135      0.1155
     34  CG        -4.4400    3.5230   20.3050 C.2   135  ASN135      0.2627
     35  OD1       -4.2680    3.2170   21.4790 O.2   135  ASN135     -0.2716
     36  ND2       -4.0570    4.6910   19.8130 N.am  135  ASN135     -0.0877
     37  N          6.6930   14.8080   20.6590 N.3   322  THR322     -0.1203
     38  CA         5.4790   14.5630   21.4530 C.3   322  THR322      0.1994
     39  C          4.5990   13.4530   20.8810 C.2   322  THR322      0.2617
     40  O          4.0450   12.6390   21.6220 O.2   322  THR322     -0.2717
     41  CB         4.6100   15.8470   21.5820 C.3   322  THR322      0.1784
     42  OG1        5.4340   17.0140   21.5960 O.3   322  THR322     -0.2211
     43  CG2        3.7920   15.7760   22.8640 C.3   322  THR322      0.0376
     44  N          4.5090   13.4380   19.5580 N.am  323  GLU323     -0.1979
     45  CA         3.7860   12.4100   18.7880 C.3   323  GLU323      0.1602
     46  C          4.1240   10.9790   19.2740 C.2   323  GLU323      0.2287
     47  O          3.2620   10.2240   19.6960 O.2   323  GLU323     -0.2864
     48  CB         4.2080   12.4660   17.2940 C.3   323  GLU323      0.0415
     49  CG         3.0890   12.5460   16.2570 C.3   323  GLU323      0.1163
     50  CD         3.4080   11.8740   14.9400 C.2   323  GLU323      0.3649
     51  OE1        3.1460   10.6620   14.8260 O.co2 323  GLU323     -0.2457
     52  OE2        3.9340   12.5420   14.0350 O.co2 323  GLU323     -0.2457
     53  N          3.7640   10.0880   23.1480 N.3   326  THR326     -0.1203
     54  CA         2.4480    9.7230   23.6720 C.3   326  THR326      0.1994
     55  C          2.0830    8.3410   23.2220 C.2   326  THR326      0.2617
     56  O          1.4410    7.5920   23.9500 O.2   326  THR326     -0.2717
     57  CB         1.3430   10.7310   23.3130 C.3   326  THR326      0.1784
     58  OG1        1.6260   11.3260   22.0400 O.3   326  THR326     -0.2211
     59  CG2        1.3630   11.8940   24.2870 C.3   326  THR326      0.0376
     60  N          2.5070    7.9890   22.0180 N.am  327  ALA327     -0.1979
     61  CA         2.2670    6.6450   21.5510 C.3   327  ALA327      0.1597
     62  C          2.8340    5.6630   22.5950 C.2   327  ALA327      0.2287
     63  O          2.1750    4.6900   22.9400 O.2   327  ALA327     -0.2864
     64  CB         2.8790    6.4440   20.1800 C.3   327  ALA327      0.0319
     65  N          0.8750    5.6220   26.1530 N.3   330  ASN330     -0.1240
     66  CA        -0.3710    4.8890   25.9800 C.3   330  ASN330      0.1653
     67  C         -0.2120    3.3720   25.9420 C.2   330  ASN330      0.2266
     68  O         -0.9560    2.6520   26.6150 O.2   330  ASN330     -0.2867
     69  CB        -1.1420    5.4040   24.7550 C.3   330  ASN330      0.1155
     70  CG        -1.8430    6.7350   25.0320 C.2   330  ASN330      0.2627
     71  OD1       -2.7050    6.8270   25.9150 O.2   330  ASN330     -0.2716
     72  ND2       -1.4600    7.7720   24.2990 N.am  330  ASN330     -0.0877
@<TRIPOS>BOND
     1    27    26    1
     2    52    50   ar
     3    15    13    1
     4    28    26    1
     5    26    25    1
     6    51    50   ar
     7    50    49    1
     8    25    22    1
     9    13    14    1
    10    13    10    1
    11    14    16    1
    12    11    12    2
    13    11    10    1
    14    49    48    1
    15    10     9    1
    16    22    23    1
    17    22    21    1
    18    23    24    2
    19    48    45    1
    20     9     3   am
    21    21    19   am
    22     3     4    2
    23     3     2    1
    24    45    46    1
    25    45    44    1
    26    19    20    2
    27    19    18    1
    28    31    32    2
    29    31    30    1
    30     1     2    1
    31    46    47    2
    32    33    30    1
    33    33    34    1
    34    17    18    1
    35    44    39   am
    36     2     5    1
    37    36    34   am
    38    30    29    1
    39    64    61    1
    40     5     6    1
    41    34    35    2
    42    37    38    1
    43    39    38    1
    44    39    40    2
    45    38    41    1
    46     6     8   am
    47     6     7    2
    48    61    60    1
    49    61    62    1
    50    41    42    1
    51    41    43    1
    52    60    55   am
    53    58    57    1
    54    62    63    2
    55    53    54    1
    56    55    54    1
    57    55    56    2
    58    57    54    1
    59    57    59    1
    60    72    70   am
    61    69    70    1
    62    69    66    1
    63    70    71    2
    64    67    66    1
    65    67    68    2
    66    66    65    1
