@<TRIPOS>MOLECULE
tmp/2dojA03.pdb
 93 92 0 0 0
SMALL
GASTEIGER

@<TRIPOS>ATOM
      1  N         18.3440   15.3670   10.9670 N.3    89  THR89      -0.1203
      2  CA        17.9750   13.9920   10.6090 C.3    89  THR89       0.1994
      3  C         16.5760   13.9300   10.0600 C.2    89  THR89       0.2618
      4  O         15.7470   14.7700   10.3640 O.2    89  THR89      -0.2717
      5  CB        18.1420   13.0190   11.7990 C.3    89  THR89       0.1784
      6  OG1       17.1340   13.2900   12.7900 O.3    89  THR89      -0.2211
      7  CG2       19.5180   13.1640   12.4270 C.3    89  THR89       0.0376
      8  N         16.3230   12.9190    9.2360 N.am   90  GLU90      -0.1965
      9  CA        15.0490   12.8640    8.5620 C.3    90  GLU90       0.1733
     10  C         14.0530   11.8590    9.1250 C.2    90  GLU90       0.2616
     11  O         12.8800   11.9450    8.7960 O.2    90  GLU90      -0.2715
     12  CB        15.2520   12.5730    7.0660 C.3    90  GLU90       0.0429
     13  CG        14.9010   13.7600    6.1960 C.3    90  GLU90       0.1163
     14  CD        15.2290   13.5770    4.7150 C.2    90  GLU90       0.3649
     15  OE1       14.8380   14.4520    3.9140 O.co2  90  GLU90      -0.2457
     16  OE2       15.8750   12.5750    4.3750 O.co2  90  GLU90      -0.2457
     17  N         14.5010   10.9210    9.9600 N.am   91  GLY91      -0.1955
     18  CA        13.6150    9.8940   10.5010 C.3    91  GLY91       0.1869
     19  C         13.5210    8.7110    9.5380 C.2    91  GLY91       0.2309
     20  O         14.0660    8.7700    8.4250 O.2    91  GLY91      -0.2863
     21  N          6.5580    7.5880   10.9820 N.3   250  VAL250     -0.1231
     22  CA         7.9400    7.9920   10.7620 C.3   250  VAL250      0.1692
     23  C          8.6040    7.9300   12.1350 C.2   250  VAL250      0.2592
     24  O          8.0820    8.4470   13.1290 O.2   250  VAL250     -0.2718
     25  CB         8.0450    9.4040   10.1500 C.3   250  VAL250      0.0266
     26  CG1        7.0990   10.3380   10.8540 C.3   250  VAL250      0.0020
     27  CG2        9.4700    9.9510   10.2380 C.3   250  VAL250      0.0020
     28  N          9.7450    7.2550   12.1860 N.am  251  ALA251     -0.1966
     29  CA        10.4380    6.9930   13.4290 C.3   251  ALA251      0.1717
     30  C         11.6390    7.9080   13.6270 C.2   251  ALA251      0.2495
     31  O         12.3470    8.1970   12.6880 O.2   251  ALA251     -0.2727
     32  CB        10.9020    5.5250   13.4370 C.3   251  ALA251      0.0333
     33  N         11.8750    8.3610   14.8510 N.am  252  PRO252     -0.2504
     34  CA        13.1280    9.0670   15.1450 C.3   252  PRO252      0.1487
     35  C         14.3480    8.1640   14.9130 C.2   252  PRO252      0.2276
     36  O         14.3230    6.9590   15.2100 O.2   252  PRO252     -0.2865
     37  CB        13.0420    9.3920   16.6410 C.3   252  PRO252      0.0556
     38  CG        11.7380    8.7860   17.1910 C.2   252  PRO252     -0.0078
     39  CD        10.9720    8.2440   16.0160 C.2   252  PRO252      0.0634
     40  N         11.8810   16.0710   23.4400 N.3   318  GLU318     -0.1231
     41  CA        11.9890   16.8370   22.2000 C.3   318  GLU318      0.1699
     42  C         12.5650   15.9740   21.0830 C.2   318  GLU318      0.2592
     43  O         12.1400   16.0320   19.9270 O.2   318  GLU318     -0.2718
     44  CB        12.8690   18.0680   22.3890 C.3   318  GLU318      0.0402
     45  CG        12.2730   19.0610   23.3640 C.3   318  GLU318      0.1161
     46  CD        13.3040   20.0210   23.8620 C.2   318  GLU318      0.3649
     47  OE1       14.4380   19.5800   24.1650 O.co2 318  GLU318     -0.2457
     48  OE2       13.0040   21.2290   23.9700 O.co2 318  GLU318     -0.2457
     49  N         13.5780   15.1510   21.4950 N.am  319  TYR319     -0.1962
     50  CA        14.2810   14.2850   20.5300 C.3   319  TYR319      0.1771
     51  C         13.2810   13.2530   19.9410 C.2   319  TYR319      0.2619
     52  O         13.2820   12.9870   18.7500 O.2   319  TYR319     -0.2715
     53  CB        15.4930   13.5200   21.1010 C.3   319  TYR319      0.0574
     54  CG        16.0970   12.7650   19.9010 C.ar  319  TYR319     -0.0198
     55  CD1       16.8790   13.4360   18.9490 C.ar  319  TYR319     -0.0009
     56  CD2       15.8520   11.4160   19.7380 C.ar  319  TYR319     -0.0009
     57  CE1       17.3870   12.7660   17.8440 C.ar  319  TYR319      0.0417
     58  CE2       16.3400   10.7600   18.6470 C.ar  319  TYR319      0.0417
     59  CZ        17.0920   11.4270   17.6950 C.ar  319  TYR319      0.1957
     60  OH        17.5560   10.7590   16.5760 O.3   319  TYR319     -0.2866
     61  N         12.4360   12.6750   20.7770 N.am  320  LEU320     -0.1963
     62  CA        11.4910   11.6530   20.3170 C.3   320  LEU320      0.1728
     63  C         10.2490   12.2960   19.7310 C.2   320  LEU320      0.2616
     64  O          9.5030   11.6570   18.9820 O.2   320  LEU320     -0.2715
     65  CB        11.0830   10.7320   21.4630 C.3   320  LEU320      0.0311
     66  CG        12.1170    9.7200   21.9220 C.3   320  LEU320      0.0022
     67  CD1       11.7790    9.1960   23.3150 C.3   320  LEU320      0.0001
     68  CD2       12.2230    8.5640   20.9290 C.3   320  LEU320      0.0001
     69  N         10.0350   13.5600   20.0950 N.am  321  GLY321     -0.1955
     70  CA         8.8640   14.2980   19.6680 C.3   321  GLY321      0.1869
     71  C          7.6560   13.8860   20.5040 C.2   321  GLY321      0.2309
     72  O          7.5890   12.7320   20.9840 O.2   321  GLY321     -0.2863
     73  N          4.5090   13.4380   19.5580 N.3   323  GLU323     -0.1231
     74  CA         3.7860   12.4100   18.7880 C.3   323  GLU323      0.1699
     75  C          4.1240   10.9790   19.2740 C.2   323  GLU323      0.2592
     76  O          3.2620   10.2240   19.6960 O.2   323  GLU323     -0.2718
     77  CB         4.2080   12.4660   17.2940 C.3   323  GLU323      0.0402
     78  CG         3.0890   12.5460   16.2570 C.3   323  GLU323      0.1161
     79  CD         3.4080   11.8740   14.9400 C.2   323  GLU323      0.3649
     80  OE1        3.1460   10.6620   14.8260 O.co2 323  GLU323     -0.2457
     81  OE2        3.9340   12.5420   14.0350 O.co2 323  GLU323     -0.2457
     82  N          5.3970   10.6600   19.1670 N.am  324  TYR324     -0.1976
     83  CA         5.8780    9.3250   19.5280 C.3   324  TYR324      0.1639
     84  C          5.8790    9.1130   21.0300 C.2   324  TYR324      0.2290
     85  O          5.5980    8.0200   21.4960 O.2   324  TYR324     -0.2864
     86  CB         7.2790    9.0940   18.9320 C.3   324  TYR324      0.0560
     87  CG         7.8460    7.7020   19.1470 C.ar  324  TYR324     -0.0198
     88  CD1        7.0860    6.5680   18.9010 C.ar  324  TYR324     -0.0009
     89  CD2        9.1490    7.5250   19.5790 C.ar  324  TYR324     -0.0009
     90  CE1        7.6000    5.3080   19.1000 C.ar  324  TYR324      0.0417
     91  CE2        9.6700    6.2600   19.7730 C.ar  324  TYR324      0.0417
     92  CZ         8.8950    5.1660   19.5290 C.ar  324  TYR324      0.1957
     93  OH         9.4180    3.9170   19.7060 O.3   324  TYR324     -0.2866
@<TRIPOS>BOND
     1    15    14   ar
     2    16    14   ar
     3    14    13    1
     4    13    12    1
     5    12     9    1
     6    20    19    2
     7     9    10    1
     8     9     8    1
     9    11    10    2
    10    10    17   am
    11     8     3   am
    12    19    18    1
    13    17    18    1
    14     3     4    2
    15     3     2    1
    16    25    27    1
    17    25    22    1
    18    25    26    1
    19     2     1    1
    20     2     5    1
    21    22    21    1
    22    22    23    1
    23     5     7    1
    24     5     6    1
    25    23    28   am
    26    23    24    2
    27    28    29    1
    28    31    30    2
    29    29    32    1
    30    29    30    1
    31    30    33   am
    32    81    79   ar
    33    80    79   ar
    34    33    34    1
    35    33    39    1
    36    35    34    1
    37    35    36    2
    38    79    78    1
    39    34    37    1
    40    39    38    2
    41    78    77    1
    42    60    59    1
    43    37    38    1
    44    77    74    1
    45    59    57   ar
    46    59    58   ar
    47    57    55   ar
    48    58    56   ar
    49    52    51    2
    50    74    75    1
    51    74    73    1
    52    88    90   ar
    53    88    87   ar
    54    86    87    1
    55    86    83    1
    56    55    54   ar
    57    64    63    2
    58    90    92   ar
    59    87    89   ar
    60    82    75   am
    61    82    83    1
    62    75    76    2
    63    83    84    1
    64    92    93    1
    65    92    91   ar
    66    89    91   ar
    67    70    69    1
    68    70    71    1
    69    63    69   am
    70    63    62    1
    71    56    54   ar
    72    54    53    1
    73    43    42    2
    74    51    50    1
    75    51    61   am
    76    62    61    1
    77    62    65    1
    78    71    72    2
    79    50    53    1
    80    50    49    1
    81    68    66    1
    82    84    85    2
    83    42    49   am
    84    42    41    1
    85    65    66    1
    86    66    67    1
    87    41    44    1
    88    41    40    1
    89    44    45    1
    90    45    46    1
    91    46    48   ar
    92    46    47   ar
