@<TRIPOS>MOLECULE
tmp/2dojA02.pdb
 128 121 0 0 0
SMALL
GASTEIGER

@<TRIPOS>ATOM
      1  N         21.5730    9.0450    7.5470 N.3    74  ARG74      -0.1231
      2  CA        21.7830    8.2580    6.3280 C.3    74  ARG74       0.1694
      3  C         21.7010    9.1780    5.1140 C.2    74  ARG74       0.2592
      4  O         21.2890   10.3310    5.2310 O.2    74  ARG74      -0.2718
      5  CB        20.7420    7.1490    6.2000 C.3    74  ARG74       0.0321
      6  CG        19.3990    7.6440    5.7830 C.3    74  ARG74       0.0489
      7  CD        18.2910    6.6200    5.8490 C.3    74  ARG74       0.2205
      8  NE        16.9880    7.2360    5.5920 N.pl3  74  ARG74      -0.0865
      9  CZ        16.2010    7.7630    6.5370 C.cat  74  ARG74       0.5346
     10  NH1       16.5720    7.7480    7.8180 N.pl3  74  ARG74       0.1354
     11  NH2       15.0310    8.3010    6.2020 N.pl3  74  ARG74       0.1354
     12  N         22.0960    8.6510    3.9570 N.am   75  LYS75      -0.1966
     13  CA        22.0960    9.3790    2.6820 C.3    75  LYS75       0.1728
     14  C         20.7890   10.1430    2.3600 C.2    75  LYS75       0.2617
     15  O         19.6940    9.6340    2.5810 O.2    75  LYS75      -0.2715
     16  CB        22.4510    8.4070    1.5500 C.3    75  LYS75       0.0311
     17  CG        23.9250    7.9840    1.5390 C.3    75  LYS75       0.0038
     18  CD        24.2430    6.8340    2.5160 C.3    75  LYS75       0.0206
     19  CE        24.2510    5.4720    1.8130 C.3    75  LYS75       0.1093
     20  NZ        24.7080    4.3030    2.6550 N.3    75  LYS75      -0.1314
     21  N         20.8910   11.3630    1.8350 N.am   76  SER76      -0.1936
     22  CA        19.6740   12.0980    1.4850 C.3    76  SER76       0.2055
     23  C         19.6520   12.7760    0.1120 C.2    76  SER76       0.2643
     24  O         20.6810   13.1890   -0.4320 O.2    76  SER76      -0.2714
     25  CB        19.3190   13.1120    2.5720 C.3    76  SER76       0.2130
     26  OG        20.4610   13.8570    2.9430 O.3    76  SER76      -0.2179
     27  N         18.4450   12.8510   -0.4370 N.am   77  SER77      -0.1949
     28  CA        18.1800   13.5820   -1.6630 C.3    77  SER77       0.1924
     29  C         18.0960   15.0790   -1.3230 C.2    77  SER77       0.2314
     30  O         18.8820   15.8740   -1.8450 O.2    77  SER77      -0.2863
     31  CB        16.8800   13.0860   -2.2870 C.3    77  SER77       0.2116
     32  OG        16.0050   12.6070   -1.2800 O.3    77  SER77      -0.2180
     33  N         10.9150    5.3230    7.9450 N.3    93  LEU93      -0.1245
     34  CA         9.5590    4.8370    7.7960 C.3    93  LEU93       0.1561
     35  C          9.4180    3.4260    8.3460 C.2    93  LEU93       0.2260
     36  O         10.1290    2.5100    7.9230 O.2    93  LEU93      -0.2867
     37  CB         9.1410    4.8550    6.3230 C.3    93  LEU93       0.0270
     38  CG         9.3260    6.1230    5.4780 C.3    93  LEU93       0.0019
     39  CD1        8.8710    5.8880    4.0830 C.3    93  LEU93       0.0001
     40  CD2        8.5470    7.2830    6.0790 C.3    93  LEU93       0.0001
     41  N         11.4350    0.8640    6.0720 N.3   204  ASN204     -0.1225
     42  CA        11.4710    0.7640    4.6250 C.3   204  ASN204      0.1785
     43  C         12.8440    0.3270    4.1020 C.2   204  ASN204      0.2597
     44  O         12.9380   -0.5080    3.1960 O.2   204  ASN204     -0.2718
     45  CB        10.9970    2.0690    3.9560 C.3   204  ASN204      0.1169
     46  CG        11.6590    2.3070    2.5850 C.2   204  ASN204      0.2627
     47  OD1       11.3710    1.5850    1.6150 O.2   204  ASN204     -0.2716
     48  ND2       12.5760    3.3030    2.5180 N.am  204  ASN204     -0.0877
     49  N         13.8970    0.8600    4.7130 N.am  205  ASP205     -0.1974
     50  CA        15.2630    0.5830    4.2900 C.3   205  ASP205      0.1709
     51  C         15.6260   -0.9150    4.2260 C.2   205  ASP205      0.2293
     52  O         16.3020   -1.3800    3.2870 O.2   205  ASP205     -0.2864
     53  CB        16.2230    1.3750    5.1820 C.3   205  ASP205      0.1436
     54  CG        15.8230    2.8420    5.2950 C.2   205  ASP205      0.3671
     55  OD1       14.9290    3.1860    6.1140 O.co2 205  ASP205     -0.2456
     56  OD2       16.3330    3.7200    4.5570 O.co2 205  ASP205     -0.2456
     57  N         14.7610   -2.8820    0.9340 N.3   208  TRP208     -0.1227
     58  CA        15.6240   -2.5450   -0.1850 C.3   208  TRP208      0.1737
     59  C         17.0450   -2.9920   -0.0040 C.2   208  TRP208      0.2595
     60  O         17.7820   -3.0650   -0.9740 O.2   208  TRP208     -0.2718
     61  CB        15.6530   -1.0330   -0.3880 C.3   208  TRP208      0.0564
     62  CG        14.4060   -0.4720   -0.9290 C.ar  208  TRP208      0.0003
     63  CD1       13.2440   -0.2270   -0.2500 C.ar  208  TRP208      0.0946
     64  CD2       14.1790   -0.0650   -2.2750 C.ar  208  TRP208      0.0152
     65  NE1       12.3030    0.3130   -1.0980 N.ar  208  TRP208     -0.2442
     66  CE2       12.8530    0.4150   -2.3520 C.ar  208  TRP208      0.0810
     67  CE3       14.9600   -0.0700   -3.4380 C.ar  208  TRP208      0.0012
     68  CZ2       12.3030    0.8780   -3.5340 C.ar  208  TRP208      0.0191
     69  CZ3       14.4230    0.3910   -4.6010 C.ar  208  TRP208      0.0001
     70  CH2       13.1080    0.8640   -4.6490 C.ar  208  TRP208      0.0015
     71  N         17.4480   -3.2570    1.2320 N.am  209  GLU209     -0.1979
     72  CA        18.8310   -3.6310    1.5080 C.3   209  GLU209      0.1602
     73  C         19.0370   -5.1420    1.4970 C.2   209  GLU209      0.2287
     74  O         20.1660   -5.6310    1.4340 O.2   209  GLU209     -0.2864
     75  CB        19.2930   -3.0340    2.8370 C.3   209  GLU209      0.0415
     76  CG        19.7740   -1.6070    2.7010 C.3   209  GLU209      0.1163
     77  CD        19.9150   -0.8850    4.0280 C.2   209  GLU209      0.3649
     78  OE1       20.0440   -1.5490    5.0890 O.co2 209  GLU209     -0.2457
     79  OE2       19.8930    0.3700    4.0010 O.co2 209  GLU209     -0.2457
     80  N         21.2590   -6.8680   -3.2080 N.3   214  GLU214     -0.1245
     81  CA        21.9240   -5.9350   -2.2880 C.3   214  GLU214      0.1567
     82  C         22.5700   -6.6630   -1.1160 C.2   214  GLU214      0.2260
     83  O         23.5480   -6.1950   -0.5240 O.2   214  GLU214     -0.2867
     84  CB        20.9500   -4.8890   -1.7770 C.3   214  GLU214      0.0388
     85  CG        20.4700   -3.9530   -2.8570 C.3   214  GLU214      0.1160
     86  CD        21.5310   -2.9560   -3.2400 C.2   214  GLU214      0.3649
     87  OE1       22.2520   -2.4880   -2.3440 O.co2 214  GLU214     -0.2457
     88  OE2       21.6520   -2.6380   -4.4310 O.co2 214  GLU214     -0.2457
     89  N         12.2720   -7.5490   -4.8160 N.3   225  ARG225     -0.1245
     90  CA        11.3210   -6.5690   -4.3080 C.3   225  ARG225      0.1563
     91  C          9.8750   -6.8000   -4.7750 C.2   225  ARG225      0.2260
     92  O          8.9330   -6.6830   -3.9800 O.2   225  ARG225     -0.2867
     93  CB        11.7610   -5.1630   -4.6890 C.3   225  ARG225      0.0307
     94  CG        13.2470   -4.9540   -4.5220 C.3   225  ARG225      0.0489
     95  CD        13.6920   -3.5190   -4.4210 C.3   225  ARG225      0.2205
     96  NE        14.9930   -3.5350   -3.7830 N.pl3 225  ARG225     -0.0865
     97  CZ        16.1210   -3.1740   -4.3630 C.cat 225  ARG225      0.5346
     98  NH1       16.1110   -2.7250   -5.6150 N.pl3 225  ARG225      0.1354
     99  NH2       17.2650   -3.2790   -3.6890 N.pl3 225  ARG225      0.1354
    100  N          7.9600    0.3790   -3.5010 N.3   241  THR241     -0.1218
    101  CA         8.3900    1.6960   -3.9630 C.3   241  THR241      0.1862
    102  C          7.5300    2.8280   -3.3990 C.2   241  THR241      0.2287
    103  O          7.9110    3.9920   -3.4890 O.2   241  THR241     -0.2866
    104  CB         8.3060    1.7650   -5.5040 C.3   241  THR241      0.1770
    105  OG1        7.0220    1.2960   -5.9250 O.3   241  THR241     -0.2211
    106  CG2        9.2900    0.7970   -6.1710 C.3   241  THR241      0.0375
    107  N          6.5650    3.4200   -0.1620 N.3   243  ALA243     -0.1231
    108  CA         6.5900    3.6170    1.2890 C.3   243  ALA243      0.1694
    109  C          6.1500    5.0240    1.7480 C.2   243  ALA243      0.2591
    110  O          5.5330    5.1750    2.8060 O.2   243  ALA243     -0.2718
    111  CB         7.9540    3.2380    1.8670 C.3   243  ALA243      0.0304
    112  N          6.4280    6.0480    0.9460 N.am  244  GLN244     -0.1979
    113  CA         6.0630    7.4150    1.3420 C.3   244  GLN244      0.1601
    114  C          4.5450    7.6210    1.4390 C.2   244  GLN244      0.2287
    115  O          4.1060    8.5390    2.1010 O.2   244  GLN244     -0.2864
    116  CB         6.7500    8.4760    0.4720 C.3   244  GLN244      0.0394
    117  CG         6.7170    9.9110    1.0560 C.3   244  GLN244      0.0908
    118  CD         7.5140   10.0750    2.3550 C.2   244  GLN244      0.2608
    119  OE1        6.9420   10.3990    3.4190 O.2   244  GLN244     -0.2717
    120  NE2        8.8360    9.8660    2.2720 N.am  244  GLN244     -0.0878
    121  N         23.5440    1.3810    7.1420 N.3   303  ASN303     -0.1240
    122  CA        23.2910    2.4360    6.1640 C.3   303  ASN303      0.1653
    123  C         23.6910    3.8310    6.6370 C.2   303  ASN303      0.2266
    124  O         23.4800    4.8060    5.9280 O.2   303  ASN303     -0.2867
    125  CB        21.8490    2.4200    5.6560 C.3   303  ASN303      0.1155
    126  CG        20.8270    2.7050    6.7380 C.2   303  ASN303      0.2627
    127  OD1       21.1540    2.9600    7.9040 O.2   303  ASN303     -0.2716
    128  ND2       19.5700    2.6710    6.3490 N.am  303  ASN303     -0.0877
@<TRIPOS>BOND
     1   106   104    1
     2   105   104    1
     3    98    97    1
     4   104   101    1
     5    89    90    1
     6    91    90    1
     7    91    92    2
     8    93    94    1
     9    93    90    1
    10    70    69   ar
    11    70    68   ar
    12    69    67   ar
    13    94    95    1
    14    88    86   ar
    15    95    96    1
    16    97    96    2
    17    97    99    1
    18   101   100    1
    19   101   102    1
    20    68    66   ar
    21   103   102    2
    22    67    64   ar
    23    86    85    1
    24    86    87   ar
    25    80    81    1
    26    85    84    1
    27    66    64   ar
    28    66    65   ar
    29    81    84    1
    30    81    82    1
    31    31    28    1
    32    31    32    1
    33    64    62   ar
    34    30    29    2
    35    28    29    1
    36    28    27    1
    37    82    83    2
    38    65    63   ar
    39    60    59    2
    40    62    61    1
    41    62    63   ar
    42    27    23   am
    43    24    23    2
    44    61    58    1
    45    58    59    1
    46    58    57    1
    47   107   108    1
    48    59    71   am
    49    23    22    1
    50   116   117    1
    51   116   113    1
    52   112   113    1
    53   112   109   am
    54   117   118    1
    55    71    72    1
    56   108   109    1
    57   108   111    1
    58   113   114    1
    59    74    73    2
    60   114   115    2
    61    22    21    1
    62    22    25    1
    63    73    72    1
    64    72    75    1
    65    17    16    1
    66    17    18    1
    67    16    13    1
    68    47    46    2
    69   109   110    2
    70    19    18    1
    71    19    20    1
    72    21    14   am
    73   120   118   am
    74   118   119    2
    75    14    15    2
    76    14    13    1
    77    48    46   am
    78    25    26    1
    79    46    45    1
    80    13    12    1
    81    76    75    1
    82    76    77    1
    83    44    43    2
    84    52    51    2
    85    45    42    1
    86    12     3   am
    87    79    77   ar
    88    77    78   ar
    89    39    38    1
    90    43    42    1
    91    43    49   am
    92    51    50    1
    93    50    49    1
    94    50    53    1
    95    56    54   ar
    96    42    41    1
    97     3     4    2
    98     3     2    1
    99    53    54    1
   100    54    55   ar
   101    38    40    1
   102    38    37    1
   103     8     7    1
   104     8     9    2
   105   125   122    1
   106   125   126    1
   107     6     7    1
   108     6     5    1
   109   124   123    2
   110   122   123    1
   111   122   121    1
   112     5     2    1
   113    11     9    1
   114    37    34    1
   115     2     1    1
   116   128   126   am
   117     9    10    1
   118   126   127    2
   119    34    33    1
   120    34    35    1
   121    36    35    2
