@<TRIPOS>MOLECULE
tmp/2dooA00.pdb
 151 148 0 0 0
SMALL
GASTEIGER

@<TRIPOS>ATOM
      1  N         40.2080   40.7700   38.7620 N.3    22  VAL22      -0.1245
      2  CA        39.0630   39.8630   38.8050 C.3    22  VAL22       0.1561
      3  C         38.7620   38.8980   37.6720 C.2    22  VAL22       0.2260
      4  O         37.9830   39.1860   36.7710 O.2    22  VAL22      -0.2867
      5  CB        37.7570   40.6270   39.0880 C.3    22  VAL22       0.0252
      6  CG1       36.6140   39.6270   39.2910 C.3    22  VAL22       0.0019
      7  CG2       37.9260   41.5090   40.3090 C.3    22  VAL22       0.0019
      8  N         38.2150   39.7120   34.0620 N.3    25  TRP25      -0.1241
      9  CA        37.7770   41.1050   34.0020 C.3    25  TRP25       0.1605
     10  C         38.9360   42.0870   34.0400 C.2    25  TRP25       0.2264
     11  O         38.7830   43.2660   33.7020 O.2    25  TRP25      -0.2867
     12  CB        36.8280   41.4210   35.1610 C.3    25  TRP25       0.0550
     13  CG        35.4190   40.9930   34.9160 C.ar   25  TRP25       0.0003
     14  CD1       34.9020   39.7370   35.0490 C.ar   25  TRP25       0.0946
     15  CD2       34.3530   41.8220   34.4470 C.ar   25  TRP25       0.0152
     16  NE1       33.5760   39.7320   34.6870 N.ar   25  TRP25      -0.2442
     17  CE2       33.2140   41.0000   34.3120 C.ar   25  TRP25       0.0810
     18  CE3       34.2500   43.1800   34.1230 C.ar   25  TRP25       0.0012
     19  CZ2       31.9850   41.4930   33.8660 C.ar   25  TRP25       0.0191
     20  CZ3       33.0340   43.6710   33.6780 C.ar   25  TRP25       0.0001
     21  CH2       31.9160   42.8290   33.5530 C.ar   25  TRP25       0.0015
     22  N         39.5990   45.4770   38.2910 N.3    28  VAL28      -0.1245
     23  CA        38.2650   45.9960   38.5450 C.3    28  VAL28       0.1561
     24  C         38.2500   46.9450   39.7440 C.2    28  VAL28       0.2260
     25  O         38.7800   46.6320   40.8080 O.2    28  VAL28      -0.2867
     26  CB        37.2630   44.8490   38.8130 C.3    28  VAL28       0.0252
     27  CG1       35.9510   45.4140   39.3140 C.3    28  VAL28       0.0019
     28  CG2       37.0300   44.0610   37.5390 C.3    28  VAL28       0.0019
     29  N         39.3770   46.7250   49.8880 N.3    48  PHE48      -0.1241
     30  CA        39.5720   45.2830   49.9720 C.3    48  PHE48       0.1605
     31  C         40.5450   44.8620   51.0660 C.2    48  PHE48       0.2264
     32  O         40.3350   43.8480   51.7410 O.2    48  PHE48      -0.2867
     33  CB        40.1130   44.7090   48.6590 C.3    48  PHE48       0.0534
     34  CG        39.2190   44.9040   47.4700 C.ar   48  PHE48      -0.0203
     35  CD1       39.3460   46.0330   46.6610 C.ar   48  PHE48      -0.0042
     36  CD2       38.3110   43.9140   47.1030 C.ar   48  PHE48      -0.0042
     37  CE1       38.5890   46.1700   45.4960 C.ar   48  PHE48      -0.0003
     38  CE2       37.5460   44.0410   45.9350 C.ar   48  PHE48      -0.0003
     39  CZ        37.6890   45.1720   45.1330 C.ar   48  PHE48      -0.0000
     40  N         27.4950   44.9740   52.3020 N.3    74  HIS74      -0.1241
     41  CA        27.2480   43.5320   52.2290 C.3    74  HIS74       0.1621
     42  C         28.4810   42.7640   52.6870 C.2    74  HIS74       0.2264
     43  O         29.5250   43.3680   52.9200 O.2    74  HIS74      -0.2867
     44  CB        26.7940   43.0960   50.8260 C.3    74  HIS74       0.0745
     45  CG        27.8830   43.0530   49.8010 C.ar   74  HIS74       0.0817
     46  ND1       28.7870   44.0780   49.6230 N.ar   74  HIS74      -0.2268
     47  CD2       28.1560   42.1400   48.8410 C.ar   74  HIS74       0.1154
     48  CE1       29.5680   43.7980   48.5950 C.ar   74  HIS74       0.1986
     49  NE2       29.2060   42.6290   48.1010 N.ar   74  HIS74      -0.2212
     50  N         30.6320   40.5170   51.1730 N.3    76  HIS76      -0.1241
     51  CA        31.8060   40.2630   50.3430 C.3    76  HIS76       0.1621
     52  C         32.9600   41.1480   50.8160 C.2    76  HIS76       0.2264
     53  O         32.7450   42.2340   51.3570 O.2    76  HIS76      -0.2867
     54  CB        31.4820   40.5090   48.8660 C.3    76  HIS76       0.0745
     55  CG        30.6130   39.4470   48.2630 C.ar   76  HIS76       0.0817
     56  ND1       30.0130   39.5820   47.0300 N.ar   76  HIS76      -0.2268
     57  CD2       30.2330   38.2360   48.7360 C.ar   76  HIS76       0.1154
     58  CE1       29.2980   38.5000   46.7700 C.ar   76  HIS76       0.1986
     59  NE2       29.4160   37.6680   47.7900 N.ar   76  HIS76      -0.2212
     60  N         34.9630   43.0840   49.3270 N.3    78  ASP78      -0.1239
     61  CA        35.1610   44.4050   48.7540 C.3    78  ASP78       0.1674
     62  C         34.4080   45.4800   49.5380 C.2    78  ASP78       0.2266
     63  O         34.5780   46.6710   49.2870 O.2    78  ASP78      -0.2867
     64  CB        34.7860   44.4180   47.2600 C.3    78  ASP78       0.1410
     65  CG        33.3390   44.0840   47.0010 C.2    78  ASP78       0.3668
     66  OD1       32.6950   43.4510   47.8560 O.co2  78  ASP78      -0.2456
     67  OD2       32.8500   44.4510   45.9150 O.co2  78  ASP78      -0.2456
     68  N         21.9090   41.0590   44.9320 N.3   136  HIS136     -0.1241
     69  CA        23.2690   40.6190   44.6360 C.3   136  HIS136      0.1621
     70  C         23.6630   39.5530   45.6640 C.2   136  HIS136      0.2264
     71  O         24.2920   38.5410   45.3350 O.2   136  HIS136     -0.2867
     72  CB        24.2240   41.8110   44.7160 C.3   136  HIS136      0.0745
     73  CG        25.6700   41.4300   44.7570 C.ar  136  HIS136      0.0817
     74  ND1       26.2850   40.7320   43.7400 N.ar  136  HIS136     -0.2268
     75  CD2       26.6240   41.6530   45.6910 C.ar  136  HIS136      0.1154
     76  CE1       27.5570   40.5430   44.0450 C.ar  136  HIS136      0.1986
     77  NE2       27.7880   41.0930   45.2230 N.ar  136  HIS136     -0.2212
     78  N         26.9840   47.1040   45.7550 N.3   155  CYS155     -0.1235
     79  CA        27.0400   46.0500   44.7630 C.3   155  CYS155      0.1677
     80  C         25.6630   45.6130   44.2810 C.2   155  CYS155      0.2270
     81  O         25.5530   44.7370   43.4270 O.2   155  CYS155     -0.2867
     82  CB        27.8110   44.8600   45.3240 C.3   155  CYS155      0.0956
     83  SG        29.5230   45.2670   45.7950 S.3   155  CYS155     -0.0801
     84  N         23.4750   47.8570   42.9360 N.3   157  ILE157     -0.1231
     85  CA        23.1940   48.6590   41.7440 C.3   157  ILE157      0.1692
     86  C         24.0470   48.1270   40.5920 C.2   157  ILE157      0.2592
     87  O         25.2790   48.2340   40.5960 O.2   157  ILE157     -0.2718
     88  CB        23.5140   50.1590   41.9680 C.3   157  ILE157      0.0266
     89  CG1       22.5480   50.7600   42.9850 C.3   157  ILE157      0.0019
     90  CG2       23.3970   50.9230   40.6560 C.3   157  ILE157      0.0020
     91  CD1       21.1190   50.8160   42.5090 C.3   157  ILE157      0.0001
     92  N         23.3820   47.5480   39.6060 N.am  158  LYS158     -0.1966
     93  CA        24.0620   46.9570   38.4620 C.3   158  LYS158      0.1713
     94  C         23.2990   47.3450   37.2100 C.2   158  LYS158      0.2458
     95  O         22.5670   46.5410   36.6420 O.2   158  LYS158     -0.2730
     96  CB        24.0780   45.4320   38.6210 C.3   158  LYS158      0.0311
     97  CG        24.8490   44.9420   39.8430 C.3   158  LYS158      0.0038
     98  CD        26.3440   45.1410   39.6530 C.3   158  LYS158      0.0206
     99  CE        27.1270   44.6590   40.8620 C.3   158  LYS158      0.1093
    100  NZ        26.9390   43.2110   41.0930 N.3   158  LYS158     -0.1314
    101  N         23.4680   48.5960   36.7590 N.am  159  PRO159     -0.2716
    102  CA        22.7910   49.1220   35.5690 C.3   159  PRO159      0.1536
    103  C         23.2470   48.5530   34.2260 C.2   159  PRO159      0.2599
    104  O         22.5670   48.7180   33.2100 O.2   159  PRO159     -0.2715
    105  CB        23.0490   50.6210   35.6750 C.3   159  PRO159      0.0310
    106  CG        24.4180   50.6720   36.2600 C.3   159  PRO159      0.0237
    107  CD        24.3500   49.6190   37.3530 C.3   159  PRO159      0.0939
    108  N         24.3780   47.8590   34.2280 N.am  160  TYR160     -0.1960
    109  CA        24.9160   47.3130   32.9930 C.3   160  TYR160      0.1771
    110  C         24.9970   45.7930   32.9460 C.2   160  TYR160      0.2620
    111  O         25.4130   45.2230   31.9370 O.2   160  TYR160     -0.2715
    112  CB        26.3100   47.8790   32.7620 C.3   160  TYR160      0.0574
    113  CG        26.4300   49.3710   32.9550 C.ar  160  TYR160     -0.0198
    114  CD1       25.4600   50.2390   32.4620 C.ar  160  TYR160     -0.0009
    115  CD2       27.5300   49.9230   33.6050 C.ar  160  TYR160     -0.0009
    116  CE1       25.5840   51.6180   32.6140 C.ar  160  TYR160      0.0417
    117  CE2       27.6640   51.2920   33.7560 C.ar  160  TYR160      0.0417
    118  CZ        26.6910   52.1340   33.2610 C.ar  160  TYR160      0.1957
    119  OH        26.8150   53.4960   33.4160 O.3   160  TYR160     -0.2866
    120  N         24.6010   45.1450   34.0340 N.am  161  GLY161     -0.1954
    121  CA        24.6640   43.6970   34.1080 C.3   161  GLY161      0.1869
    122  C         24.7160   43.3630   35.5800 C.2   161  GLY161      0.2309
    123  O         25.1930   44.1730   36.3640 O.2   161  GLY161     -0.2863
    124  N         26.4080   40.7840   37.1850 N.3   163  GLY163     -0.1210
    125  CA        27.6820   40.3310   37.7230 C.3   163  GLY163      0.1956
    126  C         27.5320   38.8860   38.1670 C.2   163  GLY163      0.2611
    127  O         26.5700   38.2280   37.7780 O.2   163  GLY163     -0.2717
    128  N         28.4640   38.3880   38.9740 N.am  164  ASN164     -0.1974
    129  CA        28.4050   37.0050   39.4400 C.3   164  ASN164      0.1688
    130  C         27.1420   36.7580   40.2600 C.2   164  ASN164      0.2292
    131  O         26.7780   37.5650   41.1190 O.2   164  ASN164     -0.2864
    132  CB        29.6410   36.6640   40.2750 C.3   164  ASN164      0.1181
    133  CG        29.7520   35.1830   40.5720 C.2   164  ASN164      0.2629
    134  OD1       28.9410   34.6230   41.3050 O.2   164  ASN164     -0.2716
    135  ND2       30.7570   34.5380   39.9970 N.am  164  ASN164     -0.0877
    136  N         30.9080   49.0880   41.3110 N.3   194  HIS194     -0.1226
    137  CA        31.8000   48.7420   40.2120 C.3   194  HIS194      0.1752
    138  C         31.6370   49.4580   38.8750 C.2   194  HIS194      0.2596
    139  O         32.0690   48.9490   37.8410 O.2   194  HIS194     -0.2718
    140  CB        31.7330   47.2240   39.9920 C.3   194  HIS194      0.0759
    141  CG        31.9830   46.4260   41.2370 C.ar  194  HIS194      0.0818
    142  ND1       33.1390   46.5490   41.9810 N.ar  194  HIS194     -0.2268
    143  CD2       31.2380   45.4800   41.8570 C.ar  194  HIS194      0.1154
    144  CE1       33.0960   45.7100   43.0010 C.ar  194  HIS194      0.1986
    145  NE2       31.9540   45.0490   42.9480 N.ar  194  HIS194     -0.2212
    146  N         31.0250   50.6340   38.8870 N.am  195  SER195     -0.1952
    147  CA        30.8530   51.4000   37.6650 C.3   195  SER195      0.1924
    148  C         30.6490   52.8700   38.0210 C.2   195  SER195      0.2314
    149  O         30.4050   53.2050   39.1720 O.2   195  SER195     -0.2863
    150  CB        29.6710   50.8600   36.8500 C.3   195  SER195      0.2116
    151  OG        28.4600   50.9530   37.5720 O.3   195  SER195     -0.2180
@<TRIPOS>BOND
     1   111   110    2
     2   114   116   ar
     3   114   113   ar
     4   116   118   ar
     5   112   113    1
     6   112   109    1
     7   110   109    1
     8   110   120   am
     9   113   115   ar
    10   109   108    1
    11   104   103    2
    12   118   119    1
    13   118   117   ar
    14    21    20   ar
    15    21    19   ar
    16   115   117   ar
    17    20    18   ar
    18    11    10    2
    19    19    17   ar
    20     9    10    1
    21     9     8    1
    22     9    12    1
    23   120   121    1
    24   121   122    1
    25    18    15   ar
    26   103   108   am
    27   103   102    1
    28    17    15   ar
    29    17    16   ar
    30    15    13   ar
    31    16    14   ar
    32    13    14   ar
    33    13    12    1
    34   102   105    1
    35   102   101    1
    36   122   123    2
    37   105   106    1
    38   106   107    1
    39    95    94    2
    40   101    94   am
    41   101   107    1
    42     4     3    2
    43   150   151    1
    44   150   147    1
    45   124   125    1
    46    94    93    1
    47    28    26    1
    48   147   148    1
    49   147   146    1
    50     3     2    1
    51   125   126    1
    52   127   126    2
    53   139   138    2
    54   148   149    2
    55   126   128   am
    56    22    23    1
    57    93    96    1
    58    93    92    1
    59    23    26    1
    60    23    24    1
    61    96    97    1
    62     1     2    1
    63     2     5    1
    64    26    27    1
    65   138   146   am
    66   138   137    1
    67   128   129    1
    68     5     6    1
    69     5     7    1
    70   129   130    1
    71   129   132    1
    72    92    86   am
    73    98    97    1
    74    98    99    1
    75    24    25    2
    76   140   137    1
    77   140   141    1
    78   135   133   am
    79   137   136    1
    80   130   131    2
    81   132   133    1
    82   133   134    2
    83    86    87    2
    84    86    85    1
    85    90    88    1
    86    99   100    1
    87   141   143   ar
    88   141   142   ar
    89    85    88    1
    90    85    84    1
    91   143   145   ar
    92    88    89    1
    93   142   144   ar
    94    91    89    1
    95   145   144   ar
    96    81    80    2
    97    74    76   ar
    98    74    73   ar
    99    76    77   ar
   100    80    79    1
   101    69    72    1
   102    69    68    1
   103    69    70    1
   104    72    73    1
   105    73    75   ar
   106    79    82    1
   107    79    78    1
   108    39    37   ar
   109    39    38   ar
   110    77    75   ar
   111    82    83    1
   112    71    70    2
   113    37    35   ar
   114    67    65   ar
   115    38    36   ar
   116    35    34   ar
   117    58    56   ar
   118    58    59   ar
   119    65    64    1
   120    65    66   ar
   121    56    55   ar
   122    36    34   ar
   123    64    61    1
   124    34    33    1
   125    59    57   ar
   126    49    48   ar
   127    49    47   ar
   128    55    57   ar
   129    55    54    1
   130    48    46   ar
   131    33    30    1
   132    61    60    1
   133    61    62    1
   134    47    45   ar
   135    54    51    1
   136    63    62    2
   137    46    45   ar
   138    45    44    1
   139    29    30    1
   140    30    31    1
   141    51    52    1
   142    51    50    1
   143    52    53    2
   144    44    41    1
   145    31    32    2
   146    41    40    1
   147    41    42    1
   148    42    43    2
