@<TRIPOS>MOLECULE
tmp/2douA00.pdb
 155 149 0 0 0
SMALL
GASTEIGER

@<TRIPOS>ATOM
      1  N         74.4890   -6.9020   30.5500 N.3    28  SER28      -0.1202
      2  CA        73.3330   -6.0210   30.6570 C.3    28  SER28       0.2020
      3  C         73.4270   -4.7390   29.8280 C.2    28  SER28       0.2619
      4  O         72.4250   -4.0620   29.6140 O.2    28  SER28      -0.2717
      5  CB        73.0910   -5.6640   32.1340 C.3    28  SER28       0.2103
      6  OG        74.1510   -4.8840   32.6550 O.3    28  SER28      -0.2182
      7  N         74.6300   -4.4010   29.3830 N.am   29  ILE29      -0.1965
      8  CA        74.8350   -3.2000   28.5830 C.3    29  ILE29       0.1727
      9  C         75.2430   -3.5670   27.1430 C.2    29  ILE29       0.2617
     10  O         76.1560   -4.3580   26.9260 O.2    29  ILE29      -0.2715
     11  CB        75.9250   -2.3190   29.2170 C.3    29  ILE29       0.0290
     12  CG1       75.5360   -1.9800   30.6630 C.3    29  ILE29       0.0022
     13  CG2       76.1090   -1.0490   28.4040 C.3    29  ILE29       0.0023
     14  CD1       76.6230   -1.2460   31.4350 C.3    29  ILE29       0.0001
     15  N         74.5700   -2.9910   26.1560 N.am   30  GLY30      -0.1940
     16  CA        74.9100   -3.3220   24.7850 C.3    30  GLY30       0.2014
     17  C         76.0980   -2.5410   24.2510 C.2    30  GLY30       0.2639
     18  O         75.9910   -1.8770   23.2240 O.2    30  GLY30      -0.2714
     19  N         77.2660   -2.5310   25.0940 N.am   31  SER31      -0.1949
     20  CA        78.3850   -1.8690   24.4620 C.3    31  SER31       0.1924
     21  C         79.4720   -2.9220   24.3580 C.2    31  SER31       0.2314
     22  O         79.6400   -3.7740   25.2410 O.2    31  SER31      -0.2863
     23  CB        78.8370   -0.6470   25.2710 C.3    31  SER31       0.2116
     24  OG        79.5130   -1.0150   26.4540 O.3    31  SER31      -0.2180
     25  N         72.6910    9.1040   16.5920 N.3    93  SER93      -0.1202
     26  CA        71.2720    9.0090   16.2400 C.3    93  SER93       0.2020
     27  C         70.2860    9.3580   17.3500 C.2    93  SER93       0.2618
     28  O         69.2110    9.9010   17.0780 O.2    93  SER93      -0.2717
     29  CB        70.9390    7.6220   15.6880 C.3    93  SER93       0.2103
     30  OG        71.1210    6.6130   16.6510 O.3    93  SER93      -0.2182
     31  N         70.6440    9.0450   18.5920 N.am   94  GLN94      -0.1979
     32  CA        69.7780    9.3360   19.7390 C.3    94  GLN94       0.1601
     33  C         69.2700   10.7660   19.6400 C.2    94  GLN94       0.2287
     34  O         68.0840   11.0510   19.7720 O.2    94  GLN94      -0.2864
     35  CB        70.5680    9.1860   21.0340 C.3    94  GLN94       0.0394
     36  CG        69.6860    9.0500   22.2370 C.3    94  GLN94       0.0908
     37  CD        69.1450    7.6510   22.3520 C.2    94  GLN94       0.2608
     38  OE1       68.5780    7.1030   21.3920 O.2    94  GLN94      -0.2717
     39  NE2       69.3180    7.0490   23.5270 N.am   94  GLN94      -0.0878
     40  N         63.5450    0.5940   22.9890 N.3   118  TYR118     -0.1241
     41  CA        64.7000    1.1870   23.6300 C.3   118  TYR118      0.1605
     42  C         64.1270    2.2230   24.6100 C.2   118  TYR118      0.2264
     43  O         63.3370    3.0900   24.2160 O.2   118  TYR118     -0.2867
     44  CB        65.5760    1.8660   22.5830 C.3   118  TYR118      0.0534
     45  CG        66.8950    2.3270   23.1300 C.ar  118  TYR118     -0.0201
     46  CD1       67.7630    1.4220   23.7320 C.ar  118  TYR118     -0.0009
     47  CD2       67.2640    3.6660   23.0720 C.ar  118  TYR118     -0.0009
     48  CE1       68.9600    1.8320   24.2680 C.ar  118  TYR118      0.0417
     49  CE2       68.4670    4.0910   23.6060 C.ar  118  TYR118      0.0417
     50  CZ        69.3100    3.1650   24.2070 C.ar  118  TYR118      0.1957
     51  OH        70.5080    3.5730   24.7600 O.3   118  TYR118     -0.2866
     52  N         63.2170    5.9640   23.9190 N.3   121  TYR121     -0.1241
     53  CA        62.1300    6.3160   23.0040 C.3   121  TYR121      0.1605
     54  C         60.9790    6.9150   23.8200 C.2   121  TYR121      0.2264
     55  O         60.4370    7.9720   23.4830 O.2   121  TYR121     -0.2867
     56  CB        61.6100    5.0870   22.2330 C.3   121  TYR121      0.0534
     57  CG        62.5240    4.5330   21.1510 C.ar  121  TYR121     -0.0201
     58  CD1       62.0710    3.5240   20.2950 C.ar  121  TYR121     -0.0009
     59  CD2       63.8370    4.9860   20.9930 C.ar  121  TYR121     -0.0009
     60  CE1       62.8900    2.9800   19.3190 C.ar  121  TYR121      0.0417
     61  CE2       64.6710    4.4410   20.0130 C.ar  121  TYR121      0.0417
     62  CZ        64.1820    3.4310   19.1810 C.ar  121  TYR121      0.1957
     63  OH        64.9870    2.8420   18.2410 O.3   121  TYR121     -0.2866
     64  N         61.8020    0.1600   14.8720 N.3   162  ASN162     -0.1240
     65  CA        63.2330   -0.1060   14.9740 C.3   162  ASN162      0.1653
     66  C         63.5870   -1.5560   14.6520 C.2   162  ASN162      0.2266
     67  O         63.4900   -2.4200   15.5150 O.2   162  ASN162     -0.2867
     68  CB        63.7030    0.2420   16.4050 C.3   162  ASN162      0.1155
     69  CG        65.0530   -0.3730   16.7630 C.2   162  ASN162      0.2627
     70  OD1       65.2100   -0.9660   17.8410 O.2   162  ASN162     -0.2716
     71  ND2       66.0340   -0.2240   15.8790 N.am  162  ASN162     -0.0877
     72  N         65.9870   -3.6720   19.1840 N.3   166  ASN166     -0.1240
     73  CA        66.5460   -3.6660   20.5380 C.3   166  ASN166      0.1653
     74  C         65.2660   -3.4470   21.3420 C.2   166  ASN166      0.2266
     75  O         64.5400   -2.4780   21.0960 O.2   166  ASN166     -0.2867
     76  CB        67.4940   -2.4760   20.7480 C.3   166  ASN166      0.1155
     77  CG        68.0970   -2.4380   22.1570 C.2   166  ASN166      0.2627
     78  OD1       67.7070   -3.2040   23.0360 O.2   166  ASN166     -0.2716
     79  ND2       69.0480   -1.5350   22.3690 N.am  166  ASN166     -0.0877
     80  N         64.2890    3.9590   13.1560 N.3   194  ASP194     -0.1239
     81  CA        65.6040    4.0430   13.7700 C.3   194  ASP194      0.1674
     82  C         66.3020    2.7610   13.3420 C.2   194  ASP194      0.2266
     83  O         65.8110    1.6610   13.6070 O.2   194  ASP194     -0.2867
     84  CB        65.4600    4.0820   15.2950 C.3   194  ASP194      0.1410
     85  CG        66.7510    4.4650   16.0000 C.2   194  ASP194      0.3668
     86  OD1       66.8370    4.2240   17.2260 O.co2 194  ASP194     -0.2456
     87  OD2       67.6680    5.0110   15.3450 O.co2 194  ASP194     -0.2456
     88  N         69.8850    1.6920   13.9070 N.3   196  PRO196     -0.2102
     89  CA        71.2720    1.6490   14.3720 C.3   196  PRO196      0.1504
     90  C         71.9350    0.2980   14.1270 C.2   196  PRO196      0.2575
     91  O         73.1500    0.2300   13.9650 O.2   196  PRO196     -0.2718
     92  CB        71.1430    1.9640   15.8630 C.3   196  PRO196      0.0282
     93  CG        69.8220    1.3450   16.2050 C.3   196  PRO196      0.0208
     94  CD        68.9540    1.7910   15.0470 C.3   196  PRO196      0.0893
     95  N         71.1460   -0.7720   14.0920 N.am  197  TYR197     -0.1977
     96  CA        71.7230   -2.0980   13.8900 C.3   197  TYR197      0.1639
     97  C         71.5780   -2.6490   12.4690 C.2   197  TYR197      0.2290
     98  O         71.5560   -3.8650   12.2740 O.2   197  TYR197     -0.2864
     99  CB        71.1240   -3.0940   14.8890 C.3   197  TYR197      0.0560
    100  CG        70.7050   -2.4530   16.1910 C.ar  197  TYR197     -0.0198
    101  CD1       69.3520   -2.3500   16.5280 C.ar  197  TYR197     -0.0009
    102  CD2       71.6500   -1.8980   17.0610 C.ar  197  TYR197     -0.0009
    103  CE1       68.9490   -1.7140   17.6810 C.ar  197  TYR197      0.0417
    104  CE2       71.2520   -1.2520   18.2350 C.ar  197  TYR197      0.0417
    105  CZ        69.9000   -1.1670   18.5310 C.ar  197  TYR197      0.1957
    106  OH        69.4830   -0.5240   19.6660 O.3   197  TYR197     -0.2866
    107  N         77.9350    4.3180   15.3650 N.3   226  SER226     -0.1202
    108  CA        78.1790    3.6410   16.6460 C.3   226  SER226      0.2020
    109  C         78.2650    2.1230   16.6220 C.2   226  SER226      0.2618
    110  O         79.2470    1.5480   17.0710 O.2   226  SER226     -0.2717
    111  CB        77.1190    4.0680   17.6740 C.3   226  SER226      0.2103
    112  OG        77.2120    5.4570   17.9380 O.3   226  SER226     -0.2182
    113  N         77.2290    1.4800   16.1110 N.am  227  LYS227     -0.1979
    114  CA        77.1940    0.0330   16.0620 C.3   227  LYS227      0.1596
    115  C         77.9470   -0.5790   14.8890 C.2   227  LYS227      0.2287
    116  O         78.6990   -1.5280   15.0740 O.2   227  LYS227     -0.2864
    117  CB        75.7440   -0.4380   16.0420 C.3   227  LYS227      0.0298
    118  CG        74.9680   -0.0020   17.2700 C.3   227  LYS227      0.0038
    119  CD        75.6440   -0.5210   18.5260 C.3   227  LYS227      0.0206
    120  CE        74.9970    0.0420   19.7830 C.3   227  LYS227      0.1093
    121  NZ        75.7550   -0.3650   20.9990 N.3   227  LYS227     -0.1314
    122  N         71.8720   -8.7010   20.7370 N.3   311  TYR311     -0.1241
    123  CA        70.8920   -9.0050   21.7690 C.3   311  TYR311      0.1605
    124  C         70.1940  -10.3430   21.6410 C.2   311  TYR311      0.2264
    125  O         69.8850  -10.7940   20.5390 O.2   311  TYR311     -0.2867
    126  CB        69.8140   -7.9170   21.8040 C.3   311  TYR311      0.0534
    127  CG        70.3580   -6.5100   21.8080 C.ar  311  TYR311     -0.0201
    128  CD1       70.0570   -5.6160   20.7700 C.ar  311  TYR311     -0.0009
    129  CD2       71.1840   -6.0710   22.8400 C.ar  311  TYR311     -0.0009
    130  CE1       70.5710   -4.3110   20.7670 C.ar  311  TYR311      0.0417
    131  CE2       71.7020   -4.7830   22.8460 C.ar  311  TYR311      0.0417
    132  CZ        71.3950   -3.9040   21.8120 C.ar  311  TYR311      0.1957
    133  OH        71.9040   -2.6200   21.8530 O.3   311  TYR311     -0.2866
    134  N         62.3890   -2.3040   29.3030 N.3   342  PHE342     -0.1241
    135  CA        62.1340   -1.8580   27.9330 C.3   342  PHE342      0.1605
    136  C         60.6620   -1.5930   27.6640 C.2   342  PHE342      0.2264
    137  O         60.2670   -1.3880   26.5180 O.2   342  PHE342     -0.2867
    138  CB        62.6500   -2.8890   26.9240 C.3   342  PHE342      0.0534
    139  CG        64.1080   -3.1730   27.0550 C.ar  342  PHE342     -0.0203
    140  CD1       64.5520   -4.2790   27.7700 C.ar  342  PHE342     -0.0042
    141  CD2       65.0490   -2.3020   26.5110 C.ar  342  PHE342     -0.0042
    142  CE1       65.9100   -4.5180   27.9480 C.ar  342  PHE342     -0.0003
    143  CE2       66.4140   -2.5320   26.6840 C.ar  342  PHE342     -0.0003
    144  CZ        66.8440   -3.6460   27.4090 C.ar  342  PHE342     -0.0000
    145  N         66.8740   -9.4490   28.5700 N.3   351  ARG351     -0.1245
    146  CA        67.6730   -9.2100   27.3840 C.3   351  ARG351      0.1563
    147  C         69.1130   -9.5080   27.7390 C.2   351  ARG351      0.2260
    148  O         69.5950   -9.1010   28.7940 O.2   351  ARG351     -0.2867
    149  CB        67.5580   -7.7580   26.9160 C.3   351  ARG351      0.0307
    150  CG        68.2350   -7.5100   25.5640 C.3   351  ARG351      0.0489
    151  CD        68.5330   -6.0450   25.3410 C.3   351  ARG351      0.2205
    152  NE        69.6470   -5.5870   26.1600 N.pl3 351  ARG351     -0.0865
    153  CZ        70.1060   -4.3410   26.1590 C.cat 351  ARG351      0.5346
    154  NH1       69.5470   -3.4250   25.3810 N.pl3 351  ARG351      0.1354
    155  NH2       71.1320   -4.0100   26.9320 N.pl3 351  ARG351      0.1354
@<TRIPOS>BOND
     1    98    97    2
     2    97    96    1
     3    80    81    1
     4    82    83    2
     5    82    81    1
     6    81    84    1
     7    96    95    1
     8    96    99    1
     9    88    89    1
    10    88    94    1
    11    91    90    2
    12    95    90   am
    13    90    89    1
    14    89    92    1
    15    66    65    1
    16    66    67    2
    17    64    65    1
    18   115   116    2
    19   115   114    1
    20    99   100    1
    21    65    68    1
    22    94    93    1
    23    84    85    1
    24    87    85   ar
    25   107   108    1
    26    29    26    1
    27    29    30    1
    28    92    93    1
    29    71    69   am
    30    85    86   ar
    31   117   114    1
    32   117   118    1
    33   114   113    1
    34   113   109   am
    35   100   101   ar
    36   100   102   ar
    37    26    25    1
    38    26    27    1
    39    68    69    1
    40   101   103   ar
    41   109   108    1
    42   109   110    2
    43   108   111    1
    44    69    70    2
    45   102   104   ar
    46    28    27    2
    47   118   119    1
    48    27    31   am
    49   111   112    1
    50   103   105   ar
    51   104   105   ar
    52    63    62    1
    53   119   120    1
    54   105   106    1
    55    31    32    1
    56    62    60   ar
    57    62    61   ar
    58    72    73    1
    59    60    58   ar
    60    33    32    1
    61    33    34    2
    62    32    35    1
    63   120   121    1
    64    61    59   ar
    65    58    57   ar
    66    73    76    1
    67    73    74    1
    68   125   124    2
    69   122   123    1
    70    76    77    1
    71   130   128   ar
    72   130   132   ar
    73   128   127   ar
    74    59    57   ar
    75    35    36    1
    76    75    74    2
    77    57    56    1
    78    38    37    2
    79   124   123    1
    80   123   126    1
    81   126   127    1
    82   127   129   ar
    83   132   133    1
    84   132   131   ar
    85    77    79   am
    86    77    78    2
    87    56    53    1
    88    36    37    1
    89    37    39   am
    90    44    45    1
    91    44    41    1
    92   129   131   ar
    93    40    41    1
    94    53    54    1
    95    53    52    1
    96    47    45   ar
    97    47    49   ar
    98    45    46   ar
    99    18    17    2
   100    55    54    2
   101    49    50   ar
   102    41    42    1
   103    46    48   ar
   104    50    48   ar
   105    50    51    1
   106    43    42    2
   107    17    16    1
   108    17    19   am
   109    21    20    1
   110    21    22    2
   111    20    19    1
   112    20    23    1
   113    16    15    1
   114    23    24    1
   115   151   150    1
   116   151   152    1
   117   154   153    1
   118   150   149    1
   119    15     9   am
   120   153   152    2
   121   153   155    1
   122   141   143   ar
   123   141   139   ar
   124   137   136    2
   125   143   144   ar
   126   149   146    1
   127   138   139    1
   128   138   135    1
   129    10     9    2
   130   139   140   ar
   131     9     8    1
   132   146   147    1
   133   146   145    1
   134   144   142   ar
   135   136   135    1
   136   147   148    2
   137   140   142   ar
   138   135   134    1
   139    13    11    1
   140     8    11    1
   141     8     7    1
   142    11    12    1
   143     7     3   am
   144     4     3    2
   145     3     2    1
   146     1     2    1
   147     2     5    1
   148    12    14    1
   149     5     6    1
