@<TRIPOS>MOLECULE
tmp/2dp8A03.pdb
 82 80 0 0 0
SMALL
GASTEIGER

@<TRIPOS>ATOM
      1  N         18.3200   16.1850   10.8800 N.3    89  THR89      -0.1203
      2  CA        17.9130   14.8080   10.6060 C.3    89  THR89       0.1994
      3  C         16.4750   14.6830   10.0480 C.2    89  THR89       0.2618
      4  O         15.5810   15.4410   10.4280 O.2    89  THR89      -0.2717
      5  CB        18.1130   13.9570   11.8540 C.3    89  THR89       0.1784
      6  OG1       17.2000   14.3750   12.8720 O.3    89  THR89      -0.2211
      7  CG2       19.4630   14.2540   12.4680 C.3    89  THR89       0.0376
      8  N         16.2590   13.7170    9.1530 N.am   90  GLU90      -0.1965
      9  CA        14.9500   13.5750    8.5070 C.3    90  GLU90       0.1733
     10  C         13.9580   12.6660    9.2340 C.2    90  GLU90       0.2616
     11  O         12.7500   12.9030    9.2090 O.2    90  GLU90      -0.2715
     12  CB        15.1060   13.1020    7.0520 C.3    90  GLU90       0.0429
     13  CG        16.1680   13.8580    6.2560 C.3    90  GLU90       0.1163
     14  CD        15.6900   14.3170    4.8830 C.2    90  GLU90       0.3649
     15  OE1       16.0920   15.4390    4.4900 O.co2  90  GLU90      -0.2457
     16  OE2       14.9230   13.5760    4.2020 O.co2  90  GLU90      -0.2457
     17  N         14.4690   11.6350    9.8890 N.am   91  GLY91      -0.1955
     18  CA        13.6110   10.6640   10.5300 C.3    91  GLY91       0.1869
     19  C         13.4820    9.5230    9.5430 C.2    91  GLY91       0.2309
     20  O         13.9090    9.6220    8.3920 O.2    91  GLY91      -0.2863
     21  N          6.5010    8.4960   10.9090 N.3   250  VAL250     -0.1245
     22  CA         7.8920    8.8680   10.7330 C.3   250  VAL250      0.1561
     23  C          8.5550    8.8210   12.1120 C.2   250  VAL250      0.2260
     24  O          7.9940    9.2670   13.1120 O.2   250  VAL250     -0.2867
     25  CB         8.0770   10.2130    9.9630 C.3   250  VAL250      0.0252
     26  CG1        6.8730   11.0950   10.1400 C.3   250  VAL250      0.0019
     27  CG2        9.3720   10.9320   10.3470 C.3   250  VAL250      0.0019
     28  N         11.8970    9.3320   14.7730 N.3   252  PRO252     -0.2102
     29  CA        13.1160   10.0960   15.0280 C.3   252  PRO252      0.1504
     30  C         14.3190    9.1830   14.8720 C.2   252  PRO252      0.2575
     31  O         14.2770    7.9930   15.2410 O.2   252  PRO252     -0.2718
     32  CB        12.9610   10.4990   16.4930 C.3   252  PRO252      0.0282
     33  CG        12.0760    9.4280   17.0650 C.3   252  PRO252      0.0208
     34  CD        11.0570    9.1930   15.9790 C.3   252  PRO252      0.0893
     35  N         15.3880    9.7190   14.3070 N.am  253  ASN253     -0.1975
     36  CA        16.6040    8.9470   14.1090 C.3   253  ASN253      0.1688
     37  C         17.2010    8.3490   15.3810 C.2   253  ASN253      0.2292
     38  O         17.0680    8.9180   16.4900 O.2   253  ASN253     -0.2864
     39  CB        17.6730    9.7950   13.4370 C.3   253  ASN253      0.1181
     40  CG        17.3380   10.1120   11.9990 C.2   253  ASN253      0.2629
     41  OD1       16.3350    9.6550   11.4630 O.2   253  ASN253     -0.2716
     42  ND2       18.1930   10.8900   11.3590 N.am  253  ASN253     -0.0877
     43  N         18.5470   19.7560   22.4250 N.3   314  PRO314     -0.2116
     44  CA        17.3370   19.0410   22.8210 C.3   314  PRO314      0.1372
     45  C         17.2940   18.3030   24.1210 C.2   314  PRO314      0.2244
     46  O         18.2380   17.5980   24.4360 O.2   314  PRO314     -0.2868
     47  CB        17.2130   17.9790   21.7320 C.3   314  PRO314      0.0268
     48  CG        17.8280   18.5290   20.5850 C.3   314  PRO314      0.0207
     49  CD        18.8930   19.4780   21.0250 C.3   314  PRO314      0.0892
     50  N         12.0730   16.6860   23.5160 N.3   318  GLU318     -0.1231
     51  CA        12.1150   17.5120   22.3120 C.3   318  GLU318      0.1699
     52  C         12.7570   16.7370   21.1910 C.2   318  GLU318      0.2592
     53  O         12.3850   16.8980   20.0490 O.2   318  GLU318     -0.2718
     54  CB        12.9090   18.8160   22.5250 C.3   318  GLU318      0.0402
     55  CG        12.2590   19.8460   23.4320 C.3   318  GLU318      0.1161
     56  CD        13.2210   20.9540   23.8460 C.2   318  GLU318      0.3649
     57  OE1       14.3670   20.6560   24.2630 O.co2 318  GLU318     -0.2457
     58  OE2       12.8210   22.1380   23.7760 O.co2 318  GLU318     -0.2457
     59  N         13.7550   15.9160   21.5070 N.am  319  TYR319     -0.1962
     60  CA        14.3660   15.1090   20.4500 C.3   319  TYR319      0.1771
     61  C         13.3260   14.1410   19.8600 C.2   319  TYR319      0.2619
     62  O         13.1910   14.0300   18.6480 O.2   319  TYR319     -0.2715
     63  CB        15.6040   14.3460   20.9190 C.3   319  TYR319      0.0574
     64  CG        16.1610   13.5530   19.7780 C.ar  319  TYR319     -0.0198
     65  CD1       16.8980   14.1790   18.7830 C.ar  319  TYR319     -0.0009
     66  CD2       15.8900   12.1950   19.6460 C.ar  319  TYR319     -0.0009
     67  CE1       17.3790   13.4810   17.7250 C.ar  319  TYR319      0.0417
     68  CE2       16.3650   11.5040   18.5920 C.ar  319  TYR319      0.0417
     69  CZ        17.1030   12.1510   17.6320 C.ar  319  TYR319      0.1957
     70  OH        17.5730   11.4660   16.5550 O.3   319  TYR319     -0.2866
     71  N         12.5810   13.4610   20.7240 N.am  320  LEU320     -0.1963
     72  CA        11.5710   12.5160   20.2480 C.3   320  LEU320      0.1728
     73  C         10.3750   13.2180   19.5880 C.2   320  LEU320      0.2616
     74  O          9.7200   12.6550   18.7000 O.2   320  LEU320     -0.2715
     75  CB        11.0990   11.5870   21.3830 C.3   320  LEU320      0.0311
     76  CG        12.1950   10.6740   21.9580 C.3   320  LEU320      0.0022
     77  CD1       11.6710    9.7620   23.0530 C.3   320  LEU320      0.0001
     78  CD2       12.9150    9.8580   20.8690 C.3   320  LEU320      0.0001
     79  N         10.1040   14.4450   20.0310 N.am  321  GLY321     -0.1955
     80  CA         8.9550   15.1740   19.5620 C.3   321  GLY321      0.1869
     81  C          7.7130   14.7700   20.3290 C.2   321  GLY321      0.2309
     82  O          7.5650   13.6030   20.7520 O.2   321  GLY321     -0.2863
@<TRIPOS>BOND
     1    16    14   ar
     2    15    14   ar
     3    14    13    1
     4    13    12    1
     5    12     9    1
     6    20    19    2
     7     9     8    1
     8     9    10    1
     9     8     3   am
    10    11    10    2
    11    10    17   am
    12    19    18    1
    13    17    18    1
    14    25    26    1
    15    25    27    1
    16    25    22    1
    17     3     4    2
    18     3     2    1
    19     2     1    1
    20     2     5    1
    21    22    21    1
    22    22    23    1
    23    42    40   am
    24    41    40    2
    25     5     7    1
    26     5     6    1
    27    40    39    1
    28    23    24    2
    29    39    36    1
    30    36    35    1
    31    36    37    1
    32    35    30   am
    33    28    29    1
    34    28    34    1
    35    30    29    1
    36    30    31    2
    37    29    32    1
    38    37    38    2
    39    34    33    1
    40    32    33    1
    41    70    69    1
    42    69    67   ar
    43    69    68   ar
    44    67    65   ar
    45    68    66   ar
    46    62    61    2
    47    74    73    2
    48    65    64   ar
    49    80    79    1
    50    80    81    1
    51    73    79   am
    52    73    72    1
    53    66    64   ar
    54    64    63    1
    55    61    60    1
    56    61    71   am
    57    53    52    2
    58    72    71    1
    59    72    75    1
    60    81    82    2
    61    60    63    1
    62    60    59    1
    63    48    49    1
    64    48    47    1
    65    78    76    1
    66    49    43    1
    67    52    59   am
    68    52    51    1
    69    75    76    1
    70    47    44    1
    71    76    77    1
    72    51    54    1
    73    51    50    1
    74    43    44    1
    75    54    55    1
    76    44    45    1
    77    55    56    1
    78    58    56   ar
    79    56    57   ar
    80    45    46    2
