@<TRIPOS>MOLECULE
tmp/2dpgA00.pdb
 135 132 0 0 0
SMALL
GASTEIGER

@<TRIPOS>ATOM
      1  N         87.7280   61.9600   34.6870 N.3    11  PHE11      -0.1227
      2  CA        88.3780   61.7100   33.4010 C.3    11  PHE11       0.1736
      3  C         88.1270   62.9800   32.5880 C.2    11  PHE11       0.2596
      4  O         86.9910   63.4430   32.4950 O.2    11  PHE11      -0.2718
      5  CB        87.7700   60.4960   32.7020 C.3    11  PHE11       0.0547
      6  CG        88.0570   59.1950   33.3890 C.ar   11  PHE11      -0.0202
      7  CD1       89.2500   58.5260   33.1650 C.ar   11  PHE11      -0.0042
      8  CD2       87.1400   58.6420   34.2740 C.ar   11  PHE11      -0.0042
      9  CE1       89.5300   57.3260   33.8130 C.ar   11  PHE11      -0.0003
     10  CE2       87.4080   57.4400   34.9290 C.ar   11  PHE11      -0.0003
     11  CZ        88.6060   56.7800   34.6990 C.ar   11  PHE11      -0.0000
     12  N         89.1860   63.5530   32.0290 N.am   12  GLY12      -0.1957
     13  CA        89.0540   64.7960   31.2850 C.3    12  GLY12       0.1869
     14  C         89.1320   65.9290   32.2990 C.2    12  GLY12       0.2309
     15  O         88.5460   66.9960   32.1080 O.2    12  GLY12      -0.2863
     16  N         91.2940   68.1050   32.9380 N.3    14  THR14      -0.1203
     17  CA        91.8930   69.3610   32.5180 C.3    14  THR14       0.1994
     18  C         91.0110   70.0780   31.4980 C.2    14  THR14       0.2618
     19  O         91.3220   71.1980   31.0800 O.2    14  THR14      -0.2717
     20  CB        93.2930   69.1230   31.9210 C.3    14  THR14       0.1784
     21  OG1       93.2060   68.1740   30.8470 O.3    14  THR14      -0.2211
     22  CG2       94.2310   68.5820   32.9880 C.3    14  THR14       0.0376
     23  N         89.9010   69.4370   31.1290 N.am   15  GLY15      -0.1942
     24  CA        88.9790   69.9960   30.1560 C.3    15  GLY15       0.2014
     25  C         88.2740   71.2730   30.5780 C.2    15  GLY15       0.2639
     26  O         88.2240   71.6200   31.7590 O.2    15  GLY15      -0.2714
     27  N         87.6690   71.9410   29.6010 N.am   16  ASP16      -0.1957
     28  CA        86.9550   73.1880   29.8330 C.3    16  ASP16       0.1840
     29  C         85.7620   73.0270   30.7720 C.2    16  ASP16       0.2621
     30  O         85.5470   73.8590   31.6460 O.2    16  ASP16      -0.2715
     31  CB        86.4940   73.7780   28.5060 C.3    16  ASP16       0.1450
     32  CG        86.4310   75.2910   28.5390 C.2    16  ASP16       0.3671
     33  OD1       87.5030   75.9250   28.3800 O.co2  16  ASP16      -0.2456
     34  OD2       85.3230   75.8470   28.7320 O.co2  16  ASP16      -0.2456
     35  N         85.0010   71.9480   30.6070 N.am   17  LEU17      -0.1977
     36  CA        83.8380   71.6920   31.4550 C.3    17  LEU17       0.1596
     37  C         84.2410   71.4690   32.9110 C.2    17  LEU17       0.2287
     38  O         83.5210   71.8680   33.8260 O.2    17  LEU17      -0.2864
     39  CB        83.0660   70.4610   30.9670 C.3    17  LEU17       0.0297
     40  CG        81.7910   70.0940   31.7400 C.3    17  LEU17       0.0022
     41  CD1       80.7250   71.1540   31.4800 C.3    17  LEU17       0.0001
     42  CD2       81.2890   68.7210   31.3180 C.3    17  LEU17       0.0001
     43  N         92.2810   63.2890   36.2230 N.3    44  THR44      -0.1203
     44  CA        93.0970   62.5640   35.2570 C.3    44  THR44       0.1994
     45  C         92.8440   63.0170   33.8220 C.2    44  THR44       0.2618
     46  O         91.7370   63.4350   33.4810 O.2    44  THR44      -0.2717
     47  CB        92.8900   61.0490   35.3770 C.3    44  THR44       0.1784
     48  OG1       93.6460   60.3770   34.3650 O.3    44  THR44      -0.2211
     49  CG2       91.4290   60.6910   35.2270 C.3    44  THR44       0.0376
     50  N         93.9000   62.9770   33.0140 N.am   45  ALA45      -0.1965
     51  CA        93.8830   63.3570   31.6020 C.3    45  ALA45       0.1728
     52  C         95.2660   62.9710   31.0650 C.2    45  ALA45       0.2616
     53  O         96.0660   62.3810   31.7990 O.2    45  ALA45      -0.2715
     54  CB        93.6460   64.8640   31.4500 C.3    45  ALA45       0.0334
     55  N         95.5540   63.2990   29.8060 N.am   46  ARG46      -0.1963
     56  CA        96.8480   62.9660   29.2200 C.3    46  ARG46       0.1729
     57  C         97.9920   63.8660   29.6570 C.2    46  ARG46       0.2616
     58  O         99.1320   63.4120   29.7500 O.2    46  ARG46      -0.2715
     59  CB        96.7790   62.9930   27.7070 C.3    46  ARG46       0.0348
     60  CG        95.9760   61.8880   27.0700 C.3    46  ARG46       0.0492
     61  CD        96.1150   61.9750   25.5480 C.3    46  ARG46       0.2205
     62  NE        95.9270   63.3460   25.0740 N.pl3  46  ARG46      -0.0865
     63  CZ        94.9710   63.7310   24.2350 C.cat  46  ARG46       0.5346
     64  NH1       94.1090   62.8470   23.7520 N.pl3  46  ARG46       0.1354
     65  NH2       94.8500   65.0140   23.9160 N.pl3  46  ARG46       0.1354
     66  N         97.7040   65.1390   29.9040 N.am   47  GLN47      -0.1977
     67  CA        98.7440   66.0900   30.3080 C.3    47  GLN47       0.1601
     68  C         99.6710   65.6290   31.4310 C.2    47  GLN47       0.2287
     69  O         99.2470   64.9820   32.3880 O.2    47  GLN47      -0.2864
     70  CB        98.1350   67.4300   30.6870 C.3    47  GLN47       0.0394
     71  CG        97.6510   68.2270   29.5170 C.3    47  GLN47       0.0908
     72  CD        96.9600   69.4930   29.9540 C.2    47  GLN47       0.2608
     73  OE1       97.5410   70.3160   30.6630 O.2    47  GLN47      -0.2717
     74  NE2       95.7080   69.6570   29.5430 N.am   47  GLN47      -0.0878
     75  N         97.2930   60.0010   32.4420 N.3    84  HIS84      -0.1226
     76  CA        96.8390   58.6830   32.0220 C.3    84  HIS84       0.1752
     77  C         96.1470   58.6510   30.6650 C.2    84  HIS84       0.2596
     78  O         95.3670   59.5370   30.3270 O.2    84  HIS84      -0.2718
     79  CB        95.9200   58.1290   33.1210 C.3    84  HIS84       0.0759
     80  CG        95.0230   57.0150   32.6770 C.ar   84  HIS84       0.0818
     81  ND1       93.6660   57.1830   32.5110 N.ar   84  HIS84      -0.2268
     82  CD2       95.2770   55.7080   32.4360 C.ar   84  HIS84       0.1154
     83  CE1       93.1180   56.0280   32.1880 C.ar   84  HIS84       0.1986
     84  NE2       94.0750   55.1110   32.1380 N.ar   84  HIS84      -0.2212
     85  N         96.4210   57.6000   29.9050 N.am   85  ASP85      -0.1960
     86  CA        95.8290   57.4250   28.5840 C.3    85  ASP85       0.1840
     87  C         94.7230   56.3950   28.6930 C.2    85  ASP85       0.2622
     88  O         94.9850   55.2210   28.9710 O.2    85  ASP85      -0.2715
     89  CB        96.8800   56.9350   27.5940 C.3    85  ASP85       0.1450
     90  CG        96.4050   56.9980   26.1570 C.2    85  ASP85       0.3671
     91  OD1       95.2260   57.3090   25.8880 O.co2  85  ASP85      -0.2456
     92  OD2       97.2390   56.7420   25.2770 O.co2  85  ASP85      -0.2456
     93  N         93.4940   56.8220   28.4240 N.am   86  VAL86      -0.1963
     94  CA        92.3440   55.9340   28.5270 C.3    86  VAL86       0.1727
     95  C         92.3440   54.7660   27.5590 C.2    86  VAL86       0.2616
     96  O         91.6730   53.7690   27.8000 O.2    86  VAL86      -0.2715
     97  CB        91.0240   56.7070   28.4060 C.3    86  VAL86       0.0290
     98  CG1       90.8820   57.6540   29.5770 C.3    86  VAL86       0.0023
     99  CG2       90.9630   57.4710   27.0760 C.3    86  VAL86       0.0023
    100  N         93.1060   54.8830   26.4750 N.am   87  THR87      -0.1951
    101  CA        93.1800   53.8180   25.4820 C.3    87  THR87       0.1897
    102  C         94.2850   52.8140   25.7860 C.2    87  THR87       0.2313
    103  O         94.4270   51.8050   25.0920 O.2    87  THR87      -0.2863
    104  CB        93.3470   54.3950   24.0670 C.3    87  THR87       0.1794
    105  OG1       94.3000   55.4650   24.0950 O.3    87  THR87      -0.2208
    106  CG2       92.0160   54.9320   23.5670 C.3    87  THR87       0.0378
    107  N         84.2570   63.0120   31.5950 N.3   117  SER117     -0.1202
    108  CA        84.1040   64.2920   30.9140 C.3   117  SER117      0.2020
    109  C         85.0580   64.2700   29.7180 C.2   117  SER117      0.2619
    110  O         85.9430   65.1200   29.5840 O.2   117  SER117     -0.2717
    111  CB        84.4610   65.4350   31.8670 C.3   117  SER117      0.2103
    112  OG        84.0880   66.6930   31.3340 O.3   117  SER117     -0.2182
    113  N         84.8810   63.2590   28.8730 N.am  118  VAL118     -0.1965
    114  CA        85.7080   63.0660   27.6840 C.3   118  VAL118      0.1727
    115  C         84.8420   62.8460   26.4410 C.2   118  VAL118      0.2616
    116  O         83.6170   62.8770   26.5170 O.2   118  VAL118     -0.2715
    117  CB        86.6280   61.8370   27.8450 C.3   118  VAL118      0.0290
    118  CG1       87.7020   62.1090   28.8830 C.3   118  VAL118      0.0023
    119  CG2       85.8000   60.6010   28.2210 C.3   118  VAL118      0.0023
    120  N         85.4900   62.6080   25.3030 N.am  119  ALA119     -0.1977
    121  CA        84.7860   62.3730   24.0470 C.3   119  ALA119      0.1597
    122  C         83.9740   61.0970   24.1620 C.2   119  ALA119      0.2287
    123  O         84.4790   60.0670   24.6070 O.2   119  ALA119     -0.2864
    124  CB        85.7750   62.2600   22.8890 C.3   119  ALA119      0.0319
    125  N         85.0920   57.2340   23.9530 N.3   122  PHE122     -0.1241
    126  CA        85.8880   56.5440   24.9720 C.3   122  PHE122      0.1605
    127  C         85.0180   55.9850   26.0910 C.2   122  PHE122      0.2264
    128  O         85.4760   55.1660   26.8880 O.2   122  PHE122     -0.2867
    129  CB        86.8960   57.5010   25.6060 C.3   122  PHE122      0.0534
    130  CG        87.8240   58.1530   24.6250 C.ar  122  PHE122     -0.0203
    131  CD1       88.6030   57.3840   23.7710 C.ar  122  PHE122     -0.0042
    132  CD2       87.9380   59.5390   24.5720 C.ar  122  PHE122     -0.0042
    133  CE1       89.4850   57.9820   22.8800 C.ar  122  PHE122     -0.0003
    134  CE2       88.8210   60.1490   23.6830 C.ar  122  PHE122     -0.0003
    135  CZ        89.5970   59.3660   22.8350 C.ar  122  PHE122     -0.0000
@<TRIPOS>BOND
     1   135   133   ar
     2   135   134   ar
     3   133   131   ar
     4   124   121    1
     5   106   104    1
     6   134   132   ar
     7    64    63    1
     8   131   130   ar
     9    65    63    1
    10   125   126    1
    11   121   122    1
    12   121   120    1
    13   104   105    1
    14   104   101    1
    15   122   123    2
    16    63    62    2
    17   132   130   ar
    18   130   129    1
    19   126   129    1
    20   126   127    1
    21    62    61    1
    22   103   102    2
    23    92    90   ar
    24   120   115   am
    25   101   102    1
    26   101   100    1
    27    61    60    1
    28    91    90   ar
    29   127   128    2
    30    90    89    1
    31   115   116    2
    32   115   114    1
    33   100    95   am
    34    60    59    1
    35    99    97    1
    36    95    96    2
    37    95    94    1
    38    89    86    1
    39   114   117    1
    40   114   113    1
    41    59    56    1
    42   117   119    1
    43   117   118    1
    44    33    32   ar
    45    97    94    1
    46    97    98    1
    47    93    94    1
    48    93    87   am
    49    31    32    1
    50    31    28    1
    51    32    34   ar
    52    86    87    1
    53    86    85    1
    54    87    88    2
    55   113   109   am
    56    56    57    1
    57    56    55    1
    58    71    72    1
    59    71    70    1
    60    74    72   am
    61   110   109    2
    62    27    28    1
    63    27    25   am
    64    57    58    2
    65    57    66   am
    66   109   108    1
    67    55    52   am
    68    28    29    1
    69    66    67    1
    70    85    77   am
    71    72    73    2
    72    24    25    1
    73    24    23    1
    74    67    70    1
    75    67    68    1
    76    78    77    2
    77    25    26    2
    78    35    29   am
    79    35    36    1
    80    77    76    1
    81    29    30    2
    82    21    20    1
    83   108   107    1
    84   108   111    1
    85    39    36    1
    86    39    40    1
    87    52    51    1
    88    52    53    2
    89    19    18    2
    90    23    18   am
    91    13    12    1
    92    13    14    1
    93    42    40    1
    94   112   111    1
    95    68    69    2
    96    54    51    1
    97    36    37    1
    98    41    40    1
    99    18    17    1
   100    51    50    1
   101    20    17    1
   102    20    22    1
   103    76    75    1
   104    76    79    1
   105    12     3   am
   106    15    14    2
   107    84    83   ar
   108    84    82   ar
   109    83    81   ar
   110    82    80   ar
   111     4     3    2
   112    81    80   ar
   113    17    16    1
   114     3     2    1
   115    80    79    1
   116     5     6    1
   117     5     2    1
   118    37    38    2
   119    50    45   am
   120     7     6   ar
   121     7     9   ar
   122     6     8   ar
   123     2     1    1
   124    46    45    2
   125     9    11   ar
   126    45    44    1
   127     8    10   ar
   128    48    47    1
   129    11    10   ar
   130    49    47    1
   131    44    47    1
   132    44    43    1
