@<TRIPOS>MOLECULE
tmp/2dptA00.pdb
 232 229 0 0 0
SMALL
GASTEIGER

@<TRIPOS>ATOM
      1  N         32.5800   74.9440   11.6930 N.3    22  PRO22      -0.2102
      2  CA        32.8720   73.5120   11.5300 C.3    22  PRO22       0.1504
      3  C         32.4410   72.9420   10.1790 C.2    22  PRO22       0.2575
      4  O         31.2710   73.0220    9.7990 O.2    22  PRO22      -0.2718
      5  CB        32.1250   72.8770   12.7010 C.3    22  PRO22       0.0282
      6  CG        30.9780   73.8270   12.9240 C.3    22  PRO22       0.0208
      7  CD        31.6750   75.1500   12.8370 C.3    22  PRO22       0.0893
      8  N         33.3950   72.3460    9.4700 N.am   23  ASN23      -0.1975
      9  CA        33.1310   71.8050    8.1480 C.3    23  ASN23       0.1688
     10  C         32.0080   70.7820    8.0940 C.2    23  ASN23       0.2292
     11  O         32.0930   69.7200    8.7100 O.2    23  ASN23      -0.2864
     12  CB        34.4010   71.1860    7.5650 C.3    23  ASN23       0.1181
     13  CG        34.2800   70.8990    6.0710 C.2    23  ASN23       0.2629
     14  OD1       33.2060   70.5430    5.5710 O.2    23  ASN23      -0.2716
     15  ND2       35.3900   71.0370    5.3560 N.am   23  ASN23      -0.0877
     16  N         25.0440   62.8250    7.4970 N.3    46  PHE46      -0.1241
     17  CA        25.1520   61.8600    8.5840 C.3    46  PHE46       0.1605
     18  C         25.1300   62.5800    9.9330 C.2    46  PHE46       0.2264
     19  O         25.5310   63.7480   10.0370 O.2    46  PHE46      -0.2867
     20  CB        26.4280   60.9920    8.4510 C.3    46  PHE46       0.0534
     21  CG        27.7110   61.7570    8.6030 C.ar   46  PHE46      -0.0203
     22  CD1       28.1790   62.1190    9.8640 C.ar   46  PHE46      -0.0042
     23  CD2       28.4090   62.1940    7.4720 C.ar   46  PHE46      -0.0042
     24  CE1       29.3220   62.9190    9.9940 C.ar   46  PHE46      -0.0003
     25  CE2       29.5510   62.9920    7.5930 C.ar   46  PHE46      -0.0003
     26  CZ        30.0100   63.3610    8.8480 C.ar   46  PHE46      -0.0000
     27  N         26.3080   63.1680   13.8640 N.3    48  TRP48      -0.1241
     28  CA        27.5190   63.0180   14.6530 C.3    48  TRP48       0.1605
     29  C         27.5200   64.1040   15.7140 C.2    48  TRP48       0.2264
     30  O         27.4290   65.2870   15.3850 O.2    48  TRP48      -0.2867
     31  CB        28.7570   63.1730   13.7900 C.3    48  TRP48       0.0550
     32  CG        29.9820   62.8860   14.5700 C.ar   48  TRP48       0.0003
     33  CD1       30.6550   61.6950   14.6400 C.ar   48  TRP48       0.0946
     34  CD2       30.6150   63.7590   15.5100 C.ar   48  TRP48       0.0152
     35  NE1       31.6640   61.7740   15.5730 N.ar   48  TRP48      -0.2442
     36  CE2       31.6590   63.0300   16.1230 C.ar   48  TRP48       0.0810
     37  CE3       30.3970   65.0860   15.8990 C.ar   48  TRP48       0.0012
     38  CZ2       32.4830   63.5860   17.1030 C.ar   48  TRP48       0.0191
     39  CZ3       31.2160   65.6360   16.8730 C.ar   48  TRP48       0.0001
     40  CH2       32.2470   64.8860   17.4650 C.ar   48  TRP48       0.0015
     41  N         25.6810   66.3840    9.6020 N.3    58  TRP58      -0.1241
     42  CA        26.7670   66.8990    8.7920 C.3    58  TRP58       0.1605
     43  C         26.8740   66.3960    7.3660 C.2    58  TRP58       0.2264
     44  O         26.3700   65.3250    7.0140 O.2    58  TRP58      -0.2867
     45  CB        28.0910   66.5990    9.4830 C.3    58  TRP58       0.0550
     46  CG        28.1470   66.9950   10.9220 C.ar   58  TRP58       0.0003
     47  CD1       27.4570   66.4280   11.9600 C.ar   58  TRP58       0.0946
     48  CD2       28.9990   67.9900   11.4970 C.ar   58  TRP58       0.0152
     49  NE1       27.8390   67.0050   13.1460 N.ar   58  TRP58      -0.2442
     50  CE2       28.7850   67.9650   12.8930 C.ar   58  TRP58       0.0810
     51  CE3       29.9270   68.8990   10.9670 C.ar   58  TRP58       0.0012
     52  CZ2       29.4730   68.8160   13.7770 C.ar   58  TRP58       0.0191
     53  CZ3       30.6130   69.7470   11.8430 C.ar   58  TRP58       0.0001
     54  CH2       30.3800   69.6950   13.2360 C.ar   58  TRP58       0.0015
     55  N         30.2390   67.3650    5.2390 N.3    60  PRO60      -0.2116
     56  CA        31.4720   68.1040    4.9600 C.3    60  PRO60       0.1372
     57  C         31.8720   68.1700    3.4960 C.2    60  PRO60       0.2244
     58  O         31.4190   67.3710    2.6710 O.2    60  PRO60      -0.2868
     59  CB        32.5080   67.3640    5.8010 C.3    60  PRO60       0.0268
     60  CG        32.0100   65.9540    5.7560 C.3    60  PRO60       0.0207
     61  CD        30.5340   66.1350    6.0030 C.3    60  PRO60       0.0892
     62  N         37.0770   56.1750    0.0340 N.3    66  LEU66      -0.1245
     63  CA        38.0620   55.1440   -0.2240 C.3    66  LEU66       0.1561
     64  C         37.6090   54.2930   -1.3880 C.2    66  LEU66       0.2260
     65  O         36.5580   53.6520   -1.3370 O.2    66  LEU66      -0.2867
     66  CB        38.2710   54.2360    0.9930 C.3    66  LEU66       0.0270
     67  CG        39.0990   52.9810    0.6520 C.3    66  LEU66       0.0019
     68  CD1       40.4810   53.4110    0.1920 C.3    66  LEU66       0.0001
     69  CD2       39.2120   52.0440    1.8480 C.3    66  LEU66       0.0001
     70  N         37.2750   58.4390   20.6600 N.3   107  GLU107     -0.1245
     71  CA        36.0630   59.1410   20.2580 C.3   107  GLU107      0.1567
     72  C         34.9470   58.2270   19.7620 C.2   107  GLU107      0.2260
     73  O         34.2700   58.5200   18.7730 O.2   107  GLU107     -0.2867
     74  CB        36.3320   60.2180   19.2130 C.3   107  GLU107      0.0388
     75  CG        35.2310   61.2760   19.2370 C.3   107  GLU107      0.1160
     76  CD        35.3310   62.2600   18.1010 C.2   107  GLU107      0.3649
     77  OE1       35.2300   61.8140   16.9390 O.co2 107  GLU107     -0.2457
     78  OE2       35.5060   63.4710   18.3680 O.co2 107  GLU107     -0.2457
     79  N         31.0720   59.2290   21.2170 N.3   110  TRP110     -0.1241
     80  CA        29.9110   59.9160   20.6700 C.3   110  TRP110      0.1605
     81  C         28.7970   58.8970   20.4500 C.2   110  TRP110      0.2264
     82  O         27.6160   59.2540   20.3240 O.2   110  TRP110     -0.2867
     83  CB        30.2470   60.6220   19.3470 C.3   110  TRP110      0.0550
     84  CG        30.1740   59.7610   18.1100 C.ar  110  TRP110      0.0003
     85  CD1       31.1920   59.0500   17.5350 C.ar  110  TRP110      0.0946
     86  CD2       29.0190   59.5500   17.2830 C.ar  110  TRP110      0.0152
     87  NE1       30.7420   58.4120   16.3970 N.ar  110  TRP110     -0.2442
     88  CE2       29.4130   58.7020   16.2210 C.ar  110  TRP110      0.0810
     89  CE3       27.6900   59.9960   17.3360 C.ar  110  TRP110      0.0012
     90  CZ2       28.5240   58.2920   15.2200 C.ar  110  TRP110      0.0191
     91  CZ3       26.8070   59.5870   16.3410 C.ar  110  TRP110      0.0001
     92  CH2       27.2310   58.7430   15.2970 C.ar  110  TRP110      0.0015
     93  N         34.0800   46.4100   12.0600 N.3   143  MET143     -0.1230
     94  CA        33.5970   47.6580   11.5010 C.3   143  MET143      0.1702
     95  C         32.1390   47.4990   11.1070 C.2   143  MET143      0.2592
     96  O         31.6810   46.3920   10.8070 O.2   143  MET143     -0.2718
     97  CB        34.4260   48.0340   10.2760 C.3   143  MET143      0.0401
     98  CG        34.7780   46.8410    9.4120 C.3   143  MET143      0.0596
     99  SD        35.5070   47.2700    7.8160 S.3   143  MET143     -0.1393
    100  CE        37.0460   48.0240    8.3330 C.3   143  MET143      0.0692
    101  N         31.3990   48.6030   11.1460 N.am  144  TYR144     -0.1976
    102  CA        30.0050   48.5700   10.7480 C.3   144  TYR144      0.1639
    103  C         29.6840   49.8080    9.9210 C.2   144  TYR144      0.2290
    104  O         30.4450   50.7660    9.9000 O.2   144  TYR144     -0.2864
    105  CB        29.1030   48.4730   11.9710 C.3   144  TYR144      0.0560
    106  CG        28.9980   49.7160   12.8160 C.ar  144  TYR144     -0.0198
    107  CD1       29.8480   49.9250   13.9000 C.ar  144  TYR144     -0.0009
    108  CD2       28.0070   50.6650   12.5630 C.ar  144  TYR144     -0.0009
    109  CE1       29.7040   51.0520   14.7220 C.ar  144  TYR144      0.0417
    110  CE2       27.8580   51.7920   13.3710 C.ar  144  TYR144      0.0417
    111  CZ        28.7040   51.9770   14.4470 C.ar  144  TYR144      0.1957
    112  OH        28.5340   53.0830   15.2430 O.3   144  TYR144     -0.2866
    113  N         29.1240   52.0720    0.2370 N.3   152  PHE152     -0.1241
    114  CA        29.0260   51.6640    1.6290 C.3   152  PHE152      0.1605
    115  C         29.5440   52.8160    2.4510 C.2   152  PHE152      0.2264
    116  O         30.6270   53.3480    2.1900 O.2   152  PHE152     -0.2867
    117  CB        29.8580   50.4220    1.9300 C.3   152  PHE152      0.0534
    118  CG        29.5930   49.8490    3.2900 C.ar  152  PHE152     -0.0203
    119  CD1       28.3900   49.1910    3.5590 C.ar  152  PHE152     -0.0042
    120  CD2       30.5320   49.9800    4.3130 C.ar  152  PHE152     -0.0042
    121  CE1       28.1280   48.6640    4.8350 C.ar  152  PHE152     -0.0003
    122  CE2       30.2870   49.4600    5.5930 C.ar  152  PHE152     -0.0003
    123  CZ        29.0840   48.7980    5.8580 C.ar  152  PHE152     -0.0000
    124  N         31.0280   53.9630    5.7400 N.3   154  GLY154     -0.1210
    125  CA        31.7080   53.5000    6.9280 C.3   154  GLY154      0.1956
    126  C         31.2730   54.3820    8.0790 C.2   154  GLY154      0.2612
    127  O         31.2200   55.6100    7.9520 O.2   154  GLY154     -0.2717
    128  N         30.9470   53.7620    9.2040 N.am  155  GLU155     -0.1965
    129  CA        30.5100   54.5050   10.3670 C.3   155  GLU155      0.1733
    130  C         31.6150   54.5620   11.3770 C.2   155  GLU155      0.2617
    131  O         31.9640   55.6370   11.8780 O.2   155  GLU155     -0.2715
    132  CB        29.2930   53.8490   11.0030 C.3   155  GLU155      0.0429
    133  CG        28.0040   54.3640   10.4480 C.3   155  GLU155      0.1163
    134  CD        27.8950   55.8590   10.6010 C.2   155  GLU155      0.3649
    135  OE1       27.7320   56.3300   11.7490 O.co2 155  GLU155     -0.2457
    136  OE2       27.9930   56.5610    9.5710 O.co2 155  GLU155     -0.2457
    137  N         32.1720   53.3950   11.6680 N.am  156  SER156     -0.1936
    138  CA        33.2340   53.2960   12.6410 C.3   156  SER156      0.2055
    139  C         33.8810   51.9080   12.6470 C.2   156  SER156      0.2642
    140  O         33.3530   50.9440   12.0810 O.2   156  SER156     -0.2714
    141  CB        32.6640   53.6220   14.0170 C.3   156  SER156      0.2130
    142  OG        33.6950   53.7090   14.9700 O.3   156  SER156     -0.2179
    143  N         35.0430   51.8210   13.2760 N.am  157  MET157     -0.1976
    144  CA        35.7490   50.5580   13.3900 C.3   157  MET157      0.1605
    145  C         36.5590   50.6050   14.6750 C.2   157  MET157      0.2287
    146  O         36.7140   51.6690   15.2730 O.2   157  MET157     -0.2864
    147  CB        36.6520   50.3000   12.1700 C.3   157  MET157      0.0413
    148  CG        37.7660   51.3000   11.9340 C.3   157  MET157      0.0598
    149  SD        38.8520   50.7460   10.5810 S.3   157  MET157     -0.1393
    150  CE        38.0120   51.4170    9.1640 C.3   157  MET157      0.0692
    151  N         39.0460   45.3660    6.9860 N.3   169  LEU169     -0.1245
    152  CA        38.8520   46.1630    5.7970 C.3   169  LEU169      0.1561
    153  C         39.4280   45.4700    4.5580 C.2   169  LEU169      0.2260
    154  O         38.8660   45.5490    3.4620 O.2   169  LEU169     -0.2867
    155  CB        39.5180   47.5170    5.9940 C.3   169  LEU169      0.0270
    156  CG        39.1880   48.5450    4.9190 C.3   169  LEU169      0.0019
    157  CD1       37.6760   48.8020    4.8900 C.3   169  LEU169      0.0001
    158  CD2       39.9650   49.8190    5.2050 C.3   169  LEU169      0.0001
    159  N         37.0790   42.8210    3.6260 N.3   172  PHE172     -0.1241
    160  CA        35.8510   43.4460    3.1550 C.3   172  PHE172      0.1605
    161  C         35.9900   43.9640    1.7290 C.2   172  PHE172      0.2264
    162  O         35.1390   43.7020    0.8830 O.2   172  PHE172     -0.2867
    163  CB        35.4420   44.6020    4.0500 C.3   172  PHE172      0.0534
    164  CG        34.2130   45.3150    3.5720 C.ar  172  PHE172     -0.0203
    165  CD1       32.9600   44.7270    3.7040 C.ar  172  PHE172     -0.0042
    166  CD2       34.3080   46.5630    2.9590 C.ar  172  PHE172     -0.0042
    167  CE1       31.8120   45.3710    3.2340 C.ar  172  PHE172     -0.0003
    168  CE2       33.1650   47.2190    2.4820 C.ar  172  PHE172     -0.0003
    169  CZ        31.9160   46.6190    2.6230 C.ar  172  PHE172     -0.0000
    170  N         33.4800   53.4670   -0.9530 N.3   184  ILE184     -0.1231
    171  CA        33.3460   53.4380    0.4910 C.3   184  ILE184      0.1692
    172  C         33.4350   54.8520    1.0310 C.2   184  ILE184      0.2592
    173  O         34.4590   55.5180    0.8790 O.2   184  ILE184     -0.2718
    174  CB        34.4480   52.6330    1.1530 C.3   184  ILE184      0.0266
    175  CG1       34.3790   51.1830    0.6880 C.3   184  ILE184      0.0019
    176  CG2       34.3230   52.7610    2.6590 C.3   184  ILE184      0.0020
    177  CD1       35.4710   50.3250    1.2470 C.3   184  ILE184      0.0001
    178  N         32.3510   55.3030    1.6580 N.am  185  ASP185     -0.1960
    179  CA        32.2850   56.6310    2.2430 C.3   185  ASP185      0.1840
    180  C         33.0160   56.5810    3.5840 C.2   185  ASP185      0.2622
    181  O         32.6850   55.7650    4.4460 O.2   185  ASP185     -0.2715
    182  CB        30.8130   57.0340    2.4190 C.3   185  ASP185      0.1450
    183  CG        30.6330   58.3220    3.2090 C.2   185  ASP185      0.3671
    184  OD1       31.5610   59.1650    3.2250 O.co2 185  ASP185     -0.2456
    185  OD2       29.5430   58.4930    3.8030 O.co2 185  ASP185     -0.2456
    186  N         34.0300   57.4310    3.7430 N.am  186  CYS186     -0.1954
    187  CA        34.7920   57.4880    4.9890 C.3   186  CYS186      0.1843
    188  C         34.4920   58.7360    5.8050 C.2   186  CYS186      0.2625
    189  O         35.2400   59.0630    6.7140 O.2   186  CYS186     -0.2714
    190  CB        36.2870   57.4470    4.7090 C.3   186  CYS186      0.0997
    191  SG        36.8730   55.8880    4.0510 S.3   186  CYS186     -0.0797
    192  N         33.4020   59.4250    5.4720 N.am  187  GLN187     -0.1963
    193  CA        32.9790   60.6490    6.1660 C.3   187  GLN187      0.1733
    194  C         34.1000   61.6740    6.3300 C.2   187  GLN187      0.2616
    195  O         34.3810   62.4250    5.4010 O.2   187  GLN187     -0.2715
    196  CB        32.3670   60.3040    7.5280 C.3   187  GLN187      0.0408
    197  CG        31.3110   59.2050    7.4360 C.3   187  GLN187      0.0908
    198  CD        30.5580   58.9710    8.7390 C.2   187  GLN187      0.2608
    199  OE1       31.1560   58.8990    9.8140 O.2   187  GLN187     -0.2717
    200  NE2       29.2360   58.8320    8.6420 N.am  187  GLN187     -0.0878
    201  N         34.7310   61.7240    7.5020 N.am  188  VAL188     -0.1977
    202  CA        35.8240   62.6710    7.7140 C.3   188  VAL188      0.1596
    203  C         37.1770   61.9600    7.7640 C.2   188  VAL188      0.2287
    204  O         37.3400   60.9530    8.4580 O.2   188  VAL188     -0.2864
    205  CB        35.6270   63.4820    9.0040 C.3   188  VAL188      0.0276
    206  CG1       36.8380   64.3810    9.2440 C.3   188  VAL188      0.0022
    207  CG2       34.3600   64.3230    8.8920 C.3   188  VAL188      0.0022
    208  N         41.1020   61.0990    8.5240 N.3   190  ASN190     -0.1240
    209  CA        41.9940   61.1420    9.6860 C.3   190  ASN190      0.1653
    210  C         43.2460   60.3320    9.3550 C.2   190  ASN190      0.2266
    211  O         43.3010   59.6610    8.3280 O.2   190  ASN190     -0.2867
    212  CB        41.3110   60.5540   10.9240 C.3   190  ASN190      0.1155
    213  CG        41.0000   59.0760   10.7720 C.2   190  ASN190      0.2627
    214  OD1       41.9040   58.2520   10.6080 O.2   190  ASN190     -0.2716
    215  ND2       39.7140   58.7320   10.8220 N.am  190  ASN190     -0.0877
    216  N         44.6680   57.4020   10.4600 N.3   192  HIS192     -0.1226
    217  CA        44.5590   55.9670   10.2000 C.3   192  HIS192      0.1752
    218  C         43.9570   55.6810    8.8340 C.2   192  HIS192      0.2596
    219  O         44.5520   54.9750    8.0180 O.2   192  HIS192     -0.2718
    220  CB        43.7050   55.2620   11.2540 C.3   192  HIS192      0.0759
    221  CG        43.6290   53.7740   11.0610 C.ar  192  HIS192      0.0818
    222  ND1       42.4460   53.0670   11.1300 N.ar  192  HIS192     -0.2268
    223  CD2       44.5990   52.8560   10.8270 C.ar  192  HIS192      0.1154
    224  CE1       42.6900   51.7800   10.9510 C.ar  192  HIS192      0.1986
    225  NE2       43.9900   51.6250   10.7660 N.ar  192  HIS192     -0.2212
    226  N         42.7720   56.2380    8.6010 N.am  193  THR193     -0.1953
    227  CA        42.0500   56.0560    7.3520 C.3   193  THR193      0.1897
    228  C         42.8280   56.5640    6.1190 C.2   193  THR193      0.2313
    229  O         42.7420   55.9870    5.0270 O.2   193  THR193     -0.2863
    230  CB        40.6340   56.7330    7.4480 C.3   193  THR193      0.1794
    231  OG1       39.8180   56.3200    6.3430 O.3   193  THR193     -0.2208
    232  CG2       40.7490   58.2570    7.4500 C.3   193  THR193      0.0378
@<TRIPOS>BOND
     1    64    65    2
     2    64    63    1
     3   170   171    1
     4    63    62    1
     5    63    66    1
     6    68    67    1
     7   113   114    1
     8   171   172    1
     9   171   174    1
    10    67    66    1
    11    67    69    1
    12   175   174    1
    13   175   177    1
    14   173   172    2
    15   162   161    2
    16   172   178   am
    17   174   176    1
    18   114   117    1
    19   114   115    1
    20   178   179    1
    21   161   160    1
    22   117   118    1
    23   116   115    2
    24   179   182    1
    25   179   180    1
    26   182   183    1
    27   168   169   ar
    28   168   166   ar
    29   169   167   ar
    30    58    57    2
    31   166   164   ar
    32   160   159    1
    33   160   163    1
    34   183   184   ar
    35   183   185   ar
    36   167   165   ar
    37   118   119   ar
    38   118   120   ar
    39   154   153    2
    40    57    56    1
    41   119   121   ar
    42   164   165   ar
    43   164   163    1
    44   180   186   am
    45   180   181    2
    46   186   187    1
    47   191   190    1
    48   120   122   ar
    49   153   152    1
    50   190   187    1
    51   121   123   ar
    52   157   156    1
    53   156   158    1
    54   156   155    1
    55    56    55    1
    56    56    59    1
    57   187   188    1
    58   229   228    2
    59    55    61    1
    60    15    13   am
    61   195   194    2
    62   192   188   am
    63   192   193    1
    64    14    13    2
    65   122   123   ar
    66   124   125    1
    67    60    59    1
    68    60    61    1
    69   152   155    1
    70   152   151    1
    71   188   189    2
    72    13    12    1
    73   228   227    1
    74   193   194    1
    75   193   196    1
    76   194   201   am
    77   231   230    1
    78   125   126    1
    79    44    43    2
    80   227   230    1
    81   227   226    1
    82    43    42    1
    83   197   196    1
    84   197   198    1
    85   230   232    1
    86    23    25   ar
    87    23    21   ar
    88    16    17    1
    89   201   202    1
    90    12     9    1
    91    25    26   ar
    92   202   203    1
    93   202   205    1
    94   203   204    2
    95    99   100    1
    96    99    98    1
    97   127   126    2
    98   219   218    2
    99   126   128   am
   100    10     9    1
   101    10    11    2
   102     9     8    1
   103   211   210    2
   104    20    17    1
   105    20    21    1
   106   208   209    1
   107    17    18    1
   108   226   218   am
   109    21    22   ar
   110   200   198   am
   111   198   199    2
   112    42    45    1
   113    42    41    1
   114   218   217    1
   115    26    24   ar
   116   207   205    1
   117   205   206    1
   118   150   149    1
   119   128   129    1
   120   210   209    1
   121    98    97    1
   122     8     3   am
   123    45    46    1
   124   136   134   ar
   125   209   212    1
   126     4     3    2
   127    22    24   ar
   128   104   103    2
   129   103   102    1
   130    18    19    2
   131     3     2    1
   132   217   216    1
   133   217   220    1
   134    97    94    1
   135   129   132    1
   136   129   130    1
   137   133   134    1
   138   133   132    1
   139   149   148    1
   140   134   135   ar
   141   214   213    2
   142   102   101    1
   143   102   105    1
   144   225   223   ar
   145   225   224   ar
   146   213   215   am
   147   213   212    1
   148    96    95    2
   149   223   221   ar
   150    46    48   ar
   151    46    47   ar
   152   224   222   ar
   153    51    48   ar
   154    51    53   ar
   155   221   222   ar
   156   221   220    1
   157    95   101   am
   158    95    94    1
   159   130   137   am
   160   130   131    2
   161    48    50   ar
   162    94    93    1
   163     2     1    1
   164     2     5    1
   165   137   138    1
   166     1     7    1
   167    53    54   ar
   168   148   147    1
   169    47    49   ar
   170   105   106    1
   171   140   139    2
   172   147   144    1
   173   108   106   ar
   174   108   110   ar
   175   138   139    1
   176   138   141    1
   177   139   143   am
   178     5     6    1
   179   106   107   ar
   180     7     6    1
   181    50    49   ar
   182    50    52   ar
   183    54    52   ar
   184   143   144    1
   185   110   111   ar
   186   144   145    1
   187    31    32    1
   188    31    28    1
   189    27    28    1
   190   107   109   ar
   191   141   142    1
   192   111   109   ar
   193   111   112    1
   194    32    33   ar
   195    32    34   ar
   196    33    35   ar
   197    28    29    1
   198   145   146    2
   199    90    92   ar
   200    90    88   ar
   201    92    91   ar
   202    30    29    2
   203    34    37   ar
   204    34    36   ar
   205    35    36   ar
   206    37    39   ar
   207    36    38   ar
   208    88    87   ar
   209    88    86   ar
   210    91    89   ar
   211    87    85   ar
   212    39    40   ar
   213    77    76   ar
   214    38    40   ar
   215    86    89   ar
   216    86    84   ar
   217    85    84   ar
   218    76    78   ar
   219    76    75    1
   220    84    83    1
   221    73    72    2
   222    74    75    1
   223    74    71    1
   224    83    80    1
   225    72    71    1
   226    71    70    1
   227    82    81    2
   228    81    80    1
   229    80    79    1
