@<TRIPOS>MOLECULE
tmp/2dpzA00.pdb
 140 136 0 0 0
SMALL
GASTEIGER

@<TRIPOS>ATOM
      1  N         11.0480   16.2420   -5.5910 N.3     2  LEU2       -0.1245
      2  CA         9.7540   16.8650   -5.5150 C.3     2  LEU2        0.1561
      3  C          8.6780   15.9680   -4.9060 C.2     2  LEU2        0.2260
      4  O          7.6760   16.4760   -4.3910 O.2     2  LEU2       -0.2867
      5  CB         9.3380   17.3200   -6.9020 C.3     2  LEU2        0.0270
      6  CG         8.5170   18.5990   -6.9270 C.3     2  LEU2        0.0019
      7  CD1        8.9240   19.4880   -5.7820 C.3     2  LEU2        0.0001
      8  CD2        8.6790   19.3120   -8.2550 C.3     2  LEU2        0.0001
      9  N          9.2330   16.1140   -1.0550 N.3     5  PHE5       -0.1227
     10  CA         8.8470   17.4290   -0.4890 C.3     5  PHE5        0.1736
     11  C          7.3640   17.4530   -0.3380 C.2     5  PHE5        0.2596
     12  O          6.8160   17.9860    0.6220 O.2     5  PHE5       -0.2718
     13  CB         9.2260   18.6190   -1.3490 C.3     5  PHE5        0.0547
     14  CG         8.9930   20.0300   -0.7860 C.ar    5  PHE5       -0.0202
     15  CD1        9.0040   20.3350    0.5700 C.ar    5  PHE5       -0.0042
     16  CD2        8.7930   21.0510   -1.6840 C.ar    5  PHE5       -0.0042
     17  CE1        8.8430   21.6490    0.9820 C.ar    5  PHE5       -0.0003
     18  CE2        8.6190   22.3650   -1.2900 C.ar    5  PHE5       -0.0003
     19  CZ         8.6360   22.6500    0.0500 C.ar    5  PHE5       -0.0000
     20  N          6.6850   16.8470   -1.3090 N.am    6  GLY6       -0.1957
     21  CA         5.2420   16.6900   -1.3030 C.3     6  GLY6        0.1869
     22  C          4.7800   15.9000   -0.0990 C.2     6  GLY6        0.2309
     23  O          3.8360   16.2880    0.5800 O.2     6  GLY6       -0.2863
     24  N          5.4200   17.8700    3.2460 N.3     9  ILE9       -0.1245
     25  CA         4.3770   18.8770    3.4070 C.3     9  ILE9        0.1561
     26  C          3.0810   18.2540    3.9350 C.2     9  ILE9        0.2260
     27  O          2.5040   18.7390    4.9080 O.2     9  ILE9       -0.2867
     28  CB         4.0890   19.6000    2.0840 C.3     9  ILE9        0.0252
     29  CG1        5.2600   20.4880    1.6690 C.3     9  ILE9        0.0019
     30  CG2        2.8340   20.4600    2.1930 C.3     9  ILE9        0.0019
     31  CD1        5.1240   21.0090    0.2120 C.3     9  ILE9        0.0001
     32  N          0.1930   18.7170   -1.3400 N.3    17  ALA17      -0.1231
     33  CA         1.0900   19.6700   -1.9980 C.3    17  ALA17       0.1694
     34  C          0.4690   20.2250   -3.2710 C.2    17  ALA17       0.2591
     35  O          0.5090   21.4340   -3.5450 O.2    17  ALA17      -0.2718
     36  CB         2.4110   18.9920   -2.3150 C.3    17  ALA17       0.0304
     37  N         -0.0980   19.2920   -4.0670 N.am   18  ILE18      -0.1980
     38  CA        -0.9660   19.6230   -5.1930 C.3    18  ILE18       0.1595
     39  C         -2.3680   19.3020   -4.7050 C.2    18  ILE18       0.2287
     40  O         -2.6610   18.1460   -4.4000 O.2    18  ILE18      -0.2864
     41  CB        -0.6870   18.6810   -6.3860 C.3    18  ILE18       0.0276
     42  CG1        0.8100   18.5880   -6.6840 C.3    18  ILE18       0.0022
     43  CG2       -1.5240   19.0860   -7.6040 C.3    18  ILE18       0.0022
     44  CD1        1.3490   19.7620   -7.4450 C.3    18  ILE18       0.0001
     45  N         -0.3550   23.9290   -2.3590 N.3    21  TYR21      -0.1227
     46  CA         0.8460   24.7480   -2.3760 C.3    21  TYR21       0.1736
     47  C          1.4860   24.8090   -3.7760 C.2    21  TYR21       0.2596
     48  O          2.6160   25.2610   -3.9270 O.2    21  TYR21      -0.2718
     49  CB         1.8470   24.2300   -1.3480 C.3    21  TYR21       0.0548
     50  CG         1.4170   24.3750    0.1170 C.ar   21  TYR21      -0.0200
     51  CD1        0.9240   23.2960    0.8250 C.ar   21  TYR21      -0.0009
     52  CD2        1.5020   25.5960    0.7700 C.ar   21  TYR21      -0.0009
     53  CE1        0.5430   23.4120    2.1550 C.ar   21  TYR21       0.0417
     54  CE2        1.1250   25.7270    2.1120 C.ar   21  TYR21       0.0417
     55  CZ         0.6380   24.6270    2.7870 C.ar   21  TYR21       0.1957
     56  OH         0.2580   24.7210    4.0950 O.3    21  TYR21      -0.2866
     57  N          0.7670   24.3790   -4.8020 N.am   22  SER22      -0.1952
     58  CA         1.3470   24.4170   -6.1470 C.3    22  SER22       0.1924
     59  C          0.8920   25.6010   -7.0140 C.2    22  SER22       0.2314
     60  O          1.3900   25.7770   -8.1060 O.2    22  SER22      -0.2863
     61  CB         1.1210   23.0910   -6.8660 C.3    22  SER22       0.2116
     62  OG        -0.2430   22.7140   -6.7720 O.3    22  SER22      -0.2180
     63  N          4.9040   32.8550   -5.3830 N.3    27  TYR27      -0.1227
     64  CA         6.0740   31.9790   -5.3140 C.3    27  TYR27       0.1736
     65  C          5.8310   30.5130   -4.9680 C.2    27  TYR27       0.2596
     66  O          6.7700   29.7130   -4.9810 O.2    27  TYR27      -0.2718
     67  CB         7.0740   32.5460   -4.3130 C.3    27  TYR27       0.0548
     68  CG         7.7100   33.8140   -4.8100 C.ar   27  TYR27      -0.0200
     69  CD1        7.1570   35.0490   -4.5150 C.ar   27  TYR27      -0.0009
     70  CD2        8.8720   33.7720   -5.5770 C.ar   27  TYR27      -0.0009
     71  CE1        7.7140   36.2150   -4.9730 C.ar   27  TYR27       0.0417
     72  CE2        9.4100   34.9300   -6.0550 C.ar   27  TYR27       0.0417
     73  CZ         8.8300   36.1520   -5.7640 C.ar   27  TYR27       0.1957
     74  OH         9.3620   37.3210   -6.2670 O.3    27  TYR27      -0.2866
     75  N          4.6180   30.1740   -4.6240 N.am   28  CYS28      -0.1956
     76  CA         4.3520   28.8130   -4.3380 C.3    28  CYS28       0.1843
     77  C          3.9620   28.1180   -5.6430 C.2    28  CYS28       0.2626
     78  O          2.9760   28.5000   -6.2870 O.2    28  CYS28      -0.2714
     79  CB         3.1940   28.6470   -3.3350 C.3    28  CYS28       0.0997
     80  SG         3.4810   29.3990   -1.6990 S.3    28  CYS28      -0.0797
     81  N          4.7210   27.1140   -6.0330 N.am   29  GLY29      -0.1954
     82  CA         4.3100   26.3300   -7.1720 C.3    29  GLY29       0.1869
     83  C          5.1920   26.5270   -8.3630 C.2    29  GLY29       0.2309
     84  O          6.0720   25.7170   -8.6450 O.2    29  GLY29      -0.2863
     85  N          7.5040   30.0480    0.5460 N.3    44  CYS44      -0.1235
     86  CA         7.8350   29.5880   -0.7870 C.3    44  CYS44       0.1677
     87  C          8.9440   30.4420   -1.3740 C.2    44  CYS44       0.2270
     88  O          9.8380   29.9410   -2.0510 O.2    44  CYS44      -0.2867
     89  CB         6.6070   29.6440   -1.6830 C.3    44  CYS44       0.0956
     90  SG         5.3850   28.4140   -1.2050 S.3    44  CYS44      -0.0801
     91  N         12.0200   29.3420    0.2780 N.3    47  HIS47      -0.1226
     92  CA        12.3330   28.0190   -0.2700 C.3    47  HIS47       0.1752
     93  C         13.0360   28.1090   -1.6460 C.2    47  HIS47       0.2596
     94  O         14.0070   27.3730   -1.9190 O.2    47  HIS47      -0.2718
     95  CB        11.0480   27.2140   -0.4150 C.3    47  HIS47       0.0759
     96  CG        11.3030   25.7740   -0.7140 C.ar   47  HIS47       0.0818
     97  ND1       11.0090   25.1880   -1.9270 N.ar   47  HIS47      -0.2268
     98  CD2       11.8850   24.8140    0.0390 C.ar   47  HIS47       0.1154
     99  CE1       11.3610   23.9120   -1.8900 C.ar   47  HIS47       0.1986
    100  NE2       11.8950   23.6630   -0.7090 N.ar   47  HIS47      -0.2212
    101  N         12.5260   28.9930   -2.5130 N.am   48  ASP48      -0.1974
    102  CA        13.1290   29.1840   -3.8240 C.3    48  ASP48       0.1709
    103  C         14.5450   29.7750   -3.7180 C.2    48  ASP48       0.2293
    104  O         15.4190   29.4010   -4.4590 O.2    48  ASP48      -0.2864
    105  CB        12.2940   30.1040   -4.6870 C.3    48  ASP48       0.1436
    106  CG        10.9800   29.4650   -5.1580 C.2    48  ASP48       0.3671
    107  OD1       10.6740   28.3100   -4.8170 O.co2  48  ASP48      -0.2456
    108  OD2       10.1690   30.1100   -5.8380 O.co2  48  ASP48      -0.2456
    109  N         16.9600   26.9390   -2.7410 N.3    51  TYR51      -0.1241
    110  CA        17.3710   26.1360   -3.9070 C.3    51  TYR51       0.1605
    111  C         18.3700   26.9500   -4.7640 C.2    51  TYR51       0.2264
    112  O         19.3160   26.4130   -5.3340 O.2    51  TYR51      -0.2867
    113  CB        16.1530   25.8010   -4.7950 C.3    51  TYR51       0.0534
    114  CG        15.2920   24.6320   -4.3630 C.ar   51  TYR51      -0.0201
    115  CD1       15.5740   23.9180   -3.2050 C.ar   51  TYR51      -0.0009
    116  CD2       14.1970   24.2320   -5.1310 C.ar   51  TYR51      -0.0009
    117  CE1       14.7890   22.8510   -2.8100 C.ar   51  TYR51       0.0417
    118  CE2       13.3960   23.1600   -4.7400 C.ar   51  TYR51       0.0417
    119  CZ        13.6990   22.4780   -3.5760 C.ar   51  TYR51       0.1957
    120  OH        12.9340   21.3980   -3.1880 O.3    51  TYR51      -0.2866
    121  N         14.5140   19.1260   -7.7400 N.3    60  LYS60      -0.1245
    122  CA        13.2880   18.4320   -8.1460 C.3    60  LYS60       0.1561
    123  C         13.4550   16.9330   -8.3530 C.2    60  LYS60       0.2260
    124  O         12.5110   16.1650   -8.1330 O.2    60  LYS60      -0.2867
    125  CB        12.7110   19.0410   -9.4370 C.3    60  LYS60       0.0271
    126  CG        12.5770   20.5460   -9.4080 C.3    60  LYS60       0.0035
    127  CD        11.4220   21.0320   -8.5720 C.3    60  LYS60       0.0206
    128  CE        11.1940   22.5520   -8.7750 C.3    60  LYS60       0.1093
    129  NZ        10.7350   23.1940   -7.5220 N.3    60  LYS60      -0.1314
    130  N          5.6700   26.2910    6.5380 N.3    96  PHE96      -0.1241
    131  CA         4.2580   26.0600    6.2590 C.3    96  PHE96       0.1605
    132  C          3.4440   25.7540    7.5380 C.2    96  PHE96       0.2264
    133  O          2.3990   26.3470    7.7850 O.2    96  PHE96      -0.2867
    134  CB         4.0920   24.9140    5.2710 C.3    96  PHE96       0.0534
    135  CG         4.5230   25.2510    3.8640 C.ar   96  PHE96      -0.0203
    136  CD1        4.4790   26.5470    3.3830 C.ar   96  PHE96      -0.0042
    137  CD2        4.9640   24.2710    3.0300 C.ar   96  PHE96      -0.0042
    138  CE1        4.8700   26.8370    2.0680 C.ar   96  PHE96      -0.0003
    139  CE2        5.3580   24.5720    1.7300 C.ar   96  PHE96      -0.0003
    140  CZ         5.3030   25.8350    1.2530 C.ar   96  PHE96      -0.0000
@<TRIPOS>BOND
     1   125   126    1
     2   125   122    1
     3   126   127    1
     4   128   127    1
     5   128   129    1
     6    84    83    2
     7    83    82    1
     8   123   122    1
     9   123   124    2
    10     8     6    1
    11   122   121    1
    12    60    59    2
    13    43    41    1
    14    44    42    1
    15    82    81    1
    16    59    58    1
    17     6     5    1
    18     6     7    1
    19     5     2    1
    20    61    62    1
    21    61    58    1
    22    42    41    1
    23    41    38    1
    24    78    77    2
    25    74    73    1
    26    58    57    1
    27    72    73   ar
    28    72    70   ar
    29    81    77   am
    30   108   106   ar
    31    73    71   ar
    32    77    76    1
    33     1     2    1
    34    70    68   ar
    35     2     3    1
    36    63    64    1
    37   112   111    2
    38    64    65    1
    39    64    67    1
    40    38    39    1
    41    38    37    1
    42   106   107   ar
    43   106   105    1
    44   116   118   ar
    45   116   114   ar
    46    66    65    2
    47    71    69   ar
    48    65    75   am
    49     3     4    2
    50    68    69   ar
    51    68    67    1
    52    57    47   am
    53   113   114    1
    54   113   110    1
    55   111   110    1
    56   118   119   ar
    57    39    40    2
    58   105   102    1
    59    75    76    1
    60   104   103    2
    61   114   115   ar
    62    76    79    1
    63    37    34   am
    64    48    47    2
    65   110   109    1
    66   102   103    1
    67   102   101    1
    68    47    46    1
    69   119   120    1
    70   119   117   ar
    71    35    34    2
    72    79    80    1
    73    34    33    1
    74   115   117   ar
    75   101    93   am
    76    46    45    1
    77    46    49    1
    78    36    33    1
    79    88    87    2
    80    33    32    1
    81    97    99   ar
    82    97    96   ar
    83    94    93    2
    84    99   100   ar
    85    80    90    1
    86    16    18   ar
    87    16    14   ar
    88    89    90    1
    89    89    86    1
    90    93    92    1
    91    87    86    1
    92    13    14    1
    93    13    10    1
    94    49    50    1
    95    20    21    1
    96    20    11   am
    97    21    22    1
    98    18    19   ar
    99     9    10    1
   100    86    85    1
   101    14    15   ar
   102    96    95    1
   103    96    98   ar
   104   100    98   ar
   105    10    11    1
   106    95    92    1
   107    11    12    2
   108    92    91    1
   109    22    23    2
   110    19    17   ar
   111    50    52   ar
   112    50    51   ar
   113    31    29    1
   114    15    17   ar
   115    52    54   ar
   116    51    53   ar
   117   140   139   ar
   118   140   138   ar
   119    29    28    1
   120   139   137   ar
   121   138   136   ar
   122    28    30    1
   123    28    25    1
   124    54    55   ar
   125    53    55   ar
   126    55    56    1
   127   137   135   ar
   128    24    25    1
   129   136   135   ar
   130    25    26    1
   131   135   134    1
   132    26    27    2
   133   134   131    1
   134   131   130    1
   135   131   132    1
   136   132   133    2
