@<TRIPOS>MOLECULE
tmp/2dq0A00.pdb
 166 154 0 0 0
SMALL
GASTEIGER

@<TRIPOS>ATOM
      1  N         30.0480   11.2130   13.4770 N.3   252  THR252     -0.1218
      2  CA        30.9240   11.2020   12.3090 C.3   252  THR252      0.1862
      3  C         30.2050   11.9680   11.2130 C.2   252  THR252      0.2287
      4  O         28.9800   11.9260   11.1530 O.2   252  THR252     -0.2866
      5  CB        31.1700    9.7680   11.7940 C.3   252  THR252      0.1770
      6  OG1       31.5070    9.8170   10.4050 O.3   252  THR252     -0.2211
      7  CG2       29.9500    8.9100   11.9760 C.3   252  THR252      0.0375
      8  N         29.9850   11.2190    8.3990 N.3   254  GLU254     -0.1245
      9  CA        29.3510   10.1720    7.5990 C.3   254  GLU254      0.1567
     10  C         27.8130   10.2840    7.6270 C.2   254  GLU254      0.2260
     11  O         27.1670   10.3380    6.5670 O.2   254  GLU254     -0.2867
     12  CB        29.7570    8.7950    8.1320 C.3   254  GLU254      0.0388
     13  CG        29.2180    7.6230    7.3440 C.3   254  GLU254      0.1160
     14  CD        29.1300    6.3480    8.1560 C.2   254  GLU254      0.3649
     15  OE1       30.0270    6.1140    8.9990 O.co2 254  GLU254     -0.2457
     16  OE2       28.1710    5.5670    7.9350 O.co2 254  GLU254     -0.2457
     17  N         30.8630   11.1230   20.6360 N.3   283  ARG283     -0.1245
     18  CA        30.4320    9.7670   20.9430 C.3   283  ARG283      0.1563
     19  C         30.4500    9.5410   22.4460 C.2   283  ARG283      0.2260
     20  O         31.3270   10.0060   23.1640 O.2   283  ARG283     -0.2867
     21  CB        31.3010    8.7080   20.2350 C.3   283  ARG283      0.0307
     22  CG        32.2070    9.2370   19.1630 C.3   283  ARG283      0.0489
     23  CD        31.8780    8.7740   17.7660 C.3   283  ARG283      0.2205
     24  NE        32.4450    7.4750   17.4330 N.pl3 283  ARG283     -0.0865
     25  CZ        32.7560    7.1010   16.1930 C.cat 283  ARG283      0.5346
     26  NH1       32.5700    7.9320   15.1810 N.pl3 283  ARG283      0.1354
     27  NH2       33.2200    5.8870   15.9450 N.pl3 283  ARG283      0.1354
     28  N         30.7610    6.6290   23.9120 N.3   285  GLU285     -0.1245
     29  CA        31.7080    5.5830   24.2750 C.3   285  GLU285      0.1567
     30  C         31.2000    4.9530   25.5690 C.2   285  GLU285      0.2260
     31  O         31.9690    4.7210   26.5020 O.2   285  GLU285     -0.2867
     32  CB        33.1140    6.1400   24.4860 C.3   285  GLU285      0.0388
     33  CG        33.7910    6.6200   23.2100 C.3   285  GLU285      0.1160
     34  CD        33.9170    5.5420   22.1210 C.2   285  GLU285      0.3649
     35  OE1       34.0860    4.3470   22.4540 O.co2 285  GLU285     -0.2457
     36  OE2       33.8670    5.9040   20.9240 O.co2 285  GLU285     -0.2457
     37  N         43.1570    9.0070   22.6500 N.3   297  PHE297     -0.1227
     38  CA        42.9450    7.8680   21.7800 C.3   297  PHE297      0.1736
     39  C         41.4570    7.5290   21.6610 C.2   297  PHE297      0.2595
     40  O         40.9620    7.2160   20.5830 O.2   297  PHE297     -0.2718
     41  CB        43.6740    6.6540   22.3320 C.3   297  PHE297      0.0547
     42  CG        43.5880    5.4690   21.4460 C.ar  297  PHE297     -0.0202
     43  CD1       44.3530    5.4070   20.2720 C.ar  297  PHE297     -0.0042
     44  CD2       42.6920    4.4330   21.7290 C.ar  297  PHE297     -0.0042
     45  CE1       44.2240    4.3290   19.3820 C.ar  297  PHE297     -0.0003
     46  CE2       42.5540    3.3410   20.8410 C.ar  297  PHE297     -0.0003
     47  CZ        43.3290    3.2990   19.6610 C.ar  297  PHE297     -0.0000
     48  N         40.7580    7.5620   22.7870 N.am  298  ARG298     -0.1966
     49  CA        39.3430    7.2430   22.8080 C.3   298  ARG298      0.1729
     50  C         38.6550    8.2530   23.7250 C.2   298  ARG298      0.2616
     51  O         38.6010    8.0950   24.9480 O.2   298  ARG298     -0.2715
     52  CB        39.1330    5.7990   23.3020 C.3   298  ARG298      0.0348
     53  CG        37.6780    5.4380   23.5130 C.3   298  ARG298      0.0492
     54  CD        37.5230    4.0490   24.0810 C.3   298  ARG298      0.2205
     55  NE        37.6430    3.0370   23.0480 N.pl3 298  ARG298     -0.0865
     56  CZ        38.6460    2.1710   22.9590 C.cat 298  ARG298      0.5346
     57  NH1       39.6300    2.1910   23.8510 N.pl3 298  ARG298      0.1354
     58  NH2       38.6540    1.2760   21.9790 N.pl3 298  ARG298      0.1354
     59  N         38.1190    9.2940   23.1090 N.am  299  VAL299     -0.1977
     60  CA        37.4880   10.3500   23.8490 C.3   299  VAL299      0.1596
     61  C         36.0790   10.6460   23.3640 C.2   299  VAL299      0.2287
     62  O         35.5790   10.0510   22.4050 O.2   299  VAL299     -0.2864
     63  CB        38.3280   11.5990   23.7190 C.3   299  VAL299      0.0276
     64  CG1       39.6200   11.4300   24.4980 C.3   299  VAL299      0.0022
     65  CG2       38.6600   11.8290   22.2250 C.3   299  VAL299      0.0022
     66  N         36.2850   14.4810   18.9580 N.3   302  PHE302     -0.1241
     67  CA        37.4540   14.5000   18.0900 C.3   302  PHE302      0.1605
     68  C         37.0760   15.0250   16.7130 C.2   302  PHE302      0.2264
     69  O         35.8930   15.0430   16.3170 O.2   302  PHE302     -0.2867
     70  CB        38.0840   13.1160   17.9390 C.3   302  PHE302      0.0534
     71  CG        37.1740   12.0860   17.3320 C.ar  302  PHE302     -0.0203
     72  CD1       36.2530   11.3980   18.1170 C.ar  302  PHE302     -0.0042
     73  CD2       37.2670   11.7690   15.9800 C.ar  302  PHE302     -0.0042
     74  CE1       35.4440   10.4040   17.5620 C.ar  302  PHE302     -0.0003
     75  CE2       36.4630   10.7710   15.4150 C.ar  302  PHE302     -0.0003
     76  CZ        35.5520   10.0890   16.2070 C.ar  302  PHE302     -0.0000
     77  N         37.4340   14.8690   12.5490 N.3   304  LYS304     -0.1245
     78  CA        37.6440   13.8910   11.4930 C.3   304  LYS304      0.1561
     79  C         37.2830   14.3480   10.0830 C.2   304  LYS304      0.2260
     80  O         36.2090   14.8740    9.8370 O.2   304  LYS304     -0.2867
     81  CB        36.8860   12.6040   11.8120 C.3   304  LYS304      0.0271
     82  CG        37.1330   11.4970   10.8090 C.3   304  LYS304      0.0035
     83  CD        36.5990   10.1500   11.3110 C.3   304  LYS304      0.0206
     84  CE        35.1120   10.2360   11.6780 C.3   304  LYS304      0.1093
     85  NZ        34.2620   10.6980   10.5320 N.3   304  LYS304     -0.1314
     86  N         36.2960   13.1740    6.6350 N.3   306  GLU306     -0.1245
     87  CA        35.6510   11.9540    6.1510 C.3   306  GLU306      0.1567
     88  C         35.3670   11.8440    4.6560 C.2   306  GLU306      0.2260
     89  O         34.9220   12.8020    4.0270 O.2   306  GLU306     -0.2867
     90  CB        34.3250   11.7920    6.9100 C.3   306  GLU306      0.0388
     91  CG        33.4650   10.6220    6.4800 C.3   306  GLU306      0.1160
     92  CD        33.8250    9.3590    7.2090 C.2   306  GLU306      0.3649
     93  OE1       34.9560    9.2860    7.7240 O.co2 306  GLU306     -0.2457
     94  OE2       32.9800    8.4400    7.2610 O.co2 306  GLU306     -0.2457
     95  N         43.7420    0.7010   15.4570 N.3   370  GLU370     -0.1231
     96  CA        42.8430    1.2430   14.4450 C.3   370  GLU370      0.1699
     97  C         43.0170    2.7330   14.3720 C.2   370  GLU370      0.2592
     98  O         43.0240    3.4220   15.3970 O.2   370  GLU370     -0.2718
     99  CB        41.3720    0.9680   14.7630 C.3   370  GLU370      0.0402
    100  CG        40.4220    1.6730   13.7770 C.3   370  GLU370      0.1161
    101  CD        38.9550    1.4470   14.0780 C.2   370  GLU370      0.3649
    102  OE1       38.1090    2.0540   13.3780 O.co2 370  GLU370     -0.2457
    103  OE2       38.6430    0.6630   15.0040 O.co2 370  GLU370     -0.2457
    104  N         43.1250    3.2270   13.1480 N.am  371  VAL371     -0.1966
    105  CA        43.3220    4.6350   12.9340 C.3   371  VAL371      0.1727
    106  C         42.3650    5.1280   11.8230 C.2   371  VAL371      0.2616
    107  O         42.1370    6.3240   11.6780 O.2   371  VAL371     -0.2715
    108  CB        44.8220    4.8700   12.6320 C.3   371  VAL371      0.0290
    109  CG1       45.1060    4.8190   11.1150 C.3   371  VAL371      0.0023
    110  CG2       45.2730    6.1430   13.3020 C.3   371  VAL371      0.0023
    111  N         41.8110    4.1930   11.0470 N.am  372  VAL372     -0.1963
    112  CA        40.8310    4.5070   10.0020 C.3   372  VAL372      0.1727
    113  C         39.9930    3.2880    9.6390 C.2   372  VAL372      0.2616
    114  O         40.4260    2.1520    9.7780 O.2   372  VAL372     -0.2715
    115  CB        41.4540    5.0990    8.6640 C.3   372  VAL372      0.0290
    116  CG1       42.9420    5.1010    8.7210 C.3   372  VAL372      0.0023
    117  CG2       40.9720    4.3060    7.4380 C.3   372  VAL372      0.0023
    118  N         38.7780    3.5480    9.1700 N.am  373  SER373     -0.1950
    119  CA        37.8550    2.5060    8.7630 C.3   373  SER373      0.1924
    120  C         37.2450    2.8880    7.4160 C.2   373  SER373      0.2314
    121  O         36.8590    4.0470    7.2020 O.2   373  SER373     -0.2863
    122  CB        36.7520    2.3650    9.8070 C.3   373  SER373      0.2116
    123  OG        36.6010    1.0110   10.1770 O.3   373  SER373     -0.2180
    124  N         34.2840    1.4500    4.7890 N.3   375  SER375     -0.1217
    125  CA        33.1910    0.5010    4.6230 C.3   375  SER375      0.1889
    126  C         32.4440    0.6160    3.3010 C.2   375  SER375      0.2288
    127  O         32.3010    1.7000    2.7320 O.2   375  SER375     -0.2866
    128  CB        32.1630    0.7010    5.7440 C.3   375  SER375      0.2089
    129  OG        32.7710    0.6630    7.0210 O.3   375  SER375     -0.2183
    130  N         31.9000    4.8370    2.9470 N.3   404  ASN404     -0.1240
    131  CA        32.5230    5.8590    3.7740 C.3   404  ASN404      0.1653
    132  C         33.8670    5.3570    4.2500 C.2   404  ASN404      0.2266
    133  O         34.1290    4.1510    4.3210 O.2   404  ASN404     -0.2867
    134  CB        31.6290    6.2460    4.9610 C.3   404  ASN404      0.1155
    135  CG        31.4810    5.1360    5.9730 C.2   404  ASN404      0.2627
    136  OD1       32.3990    4.8520    6.7380 O.2   404  ASN404     -0.2716
    137  ND2       30.3210    4.5050    5.9880 N.am  404  ASN404     -0.0877
    138  N         37.4280    6.8330    6.7160 N.3   406  THR406     -0.1218
    139  CA        38.1660    7.8640    7.3930 C.3   406  THR406      0.1862
    140  C         39.2240    8.3510    6.4140 C.2   406  THR406      0.2287
    141  O         39.7780    7.5540    5.6550 O.2   406  THR406     -0.2866
    142  CB        38.9260    7.2830    8.6000 C.3   406  THR406      0.1770
    143  OG1       38.0480    6.4500    9.3590 O.3   406  THR406     -0.2211
    144  CG2       39.4830    8.4010    9.4780 C.3   406  THR406      0.0375
    145  N         41.2960   10.9760   11.1970 N.3   409  ALA409     -0.1245
    146  CA        40.6090   11.3390   12.4180 C.3   409  ALA409      0.1562
    147  C         41.8370   11.8810   13.1670 C.2   409  ALA409      0.2260
    148  O         42.7350   11.1200   13.5230 O.2   409  ALA409     -0.2867
    149  CB        40.0190   10.0940   13.0820 C.3   409  ALA409      0.0290
    150  N         42.5290   12.9410   16.1970 N.3   411  SER411     -0.1202
    151  CA        42.8200   12.3640   17.5090 C.3   411  SER411      0.2020
    152  C         43.9060   11.2740   17.3890 C.2   411  SER411      0.2618
    153  O         45.0290   11.4270   17.8720 O.2   411  SER411     -0.2717
    154  CB        41.5420   11.7450   18.0840 C.3   411  SER411      0.2103
    155  OG        40.9290   10.8960   17.1060 O.3   411  SER411     -0.2182
    156  N         43.5640   10.1810   16.7220 N.am  412  ARG412     -0.1979
    157  CA        44.5030    9.0840   16.5750 C.3   412  ARG412      0.1597
    158  C         45.6560    9.3210   15.6330 C.2   412  ARG412      0.2287
    159  O         46.6580    8.6160   15.7150 O.2   412  ARG412     -0.2864
    160  CB        43.7600    7.8170   16.1930 C.3   412  ARG412      0.0334
    161  CG        42.7410    7.4890   17.2670 C.3   412  ARG412      0.0492
    162  CD        42.1440    6.1570   17.0880 C.3   412  ARG412      0.2205
    163  NE        41.3410    5.8280   18.2410 N.pl3 412  ARG412     -0.0865
    164  CZ        40.6350    4.7160   18.3620 C.cat 412  ARG412      0.5346
    165  NH1       39.9360    4.5070   19.4720 N.pl3 412  ARG412      0.1354
    166  NH2       40.6300    3.8230   17.3730 N.pl3 412  ARG412      0.1354
@<TRIPOS>BOND
     1   127   126    2
     2   130   131    1
     3   126   125    1
     4   131   132    1
     5   131   134    1
     6    89    88    2
     7   132   133    2
     8   125   124    1
     9   125   128    1
    10    88    87    1
    11   134   135    1
    12   141   140    2
    13   128   129    1
    14   135   137   am
    15   135   136    2
    16    87    86    1
    17    87    90    1
    18   140   139    1
    19    91    90    1
    20    91    92    1
    21    11    10    2
    22   138   139    1
    23   121   120    2
    24    92    94   ar
    25    92    93   ar
    26    13    12    1
    27    13    14    1
    28   139   142    1
    29   120   119    1
    30   117   115    1
    31     9    10    1
    32     9    12    1
    33     9     8    1
    34    16    14   ar
    35    14    15   ar
    36   142   143    1
    37   142   144    1
    38   115   116    1
    39   115   112    1
    40   119   118    1
    41   119   122    1
    42   118   113   am
    43   113   114    2
    44   113   112    1
    45   122   123    1
    46    80    79    2
    47   112   111    1
    48    79    78    1
    49     6     5    1
    50    85    84    1
    51    82    83    1
    52    82    81    1
    53   111   106   am
    54   109   108    1
    55     4     3    2
    56   145   146    1
    57     3     2    1
    58    83    84    1
    59    78    81    1
    60    78    77    1
    61   107   106    2
    62     5     7    1
    63     5     2    1
    64   106   105    1
    65     2     1    1
    66   146   149    1
    67   146   147    1
    68   108   105    1
    69   108   110    1
    70   105   104    1
    71   104    97   am
    72   147   148    2
    73   102   101   ar
    74   100   101    1
    75   100    99    1
    76   101   103   ar
    77    97    96    1
    78    97    98    2
    79    96    99    1
    80    96    95    1
    81    26    25    1
    82    75    73   ar
    83    75    76   ar
    84   158   159    2
    85   158   157    1
    86    27    25    1
    87    73    71   ar
    88   160   157    1
    89   160   161    1
    90    25    24    2
    91   150   151    1
    92    76    74   ar
    93    69    68    2
    94   157   156    1
    95    68    67    1
    96   156   152   am
    97   162   161    1
    98   162   163    1
    99   155   154    1
   100    71    70    1
   101    71    72   ar
   102   166   164    1
   103   152   151    1
   104   152   153    2
   105    24    23    1
   106   151   154    1
   107    74    72   ar
   108    23    22    1
   109    70    67    1
   110    67    66    1
   111   163   164    2
   112   164   165    1
   113    22    21    1
   114    45    47   ar
   115    45    43   ar
   116    47    46   ar
   117    21    18    1
   118    43    42   ar
   119    40    39    2
   120    17    18    1
   121    46    44   ar
   122    36    34   ar
   123    18    19    1
   124    42    44   ar
   125    42    41    1
   126    39    38    1
   127    39    48   am
   128    38    41    1
   129    38    37    1
   130    58    56    1
   131    34    35   ar
   132    34    33    1
   133    65    63    1
   134    62    61    2
   135    19    20    2
   136    48    49    1
   137    49    52    1
   138    49    50    1
   139    56    55    2
   140    56    57    1
   141    55    54    1
   142    59    50   am
   143    59    60    1
   144    33    32    1
   145    52    53    1
   146    61    60    1
   147    53    54    1
   148    63    60    1
   149    63    64    1
   150    50    51    2
   151    28    29    1
   152    29    32    1
   153    29    30    1
   154    30    31    2
