@<TRIPOS>MOLECULE
tmp/2dq3B00.pdb
 168 157 0 0 0
SMALL
GASTEIGER

@<TRIPOS>ATOM
      1  N        -14.9000   75.9010    1.8940 N.3   229  THR229     -0.1218
      2  CA       -14.0540   76.3870    0.7980 C.3   229  THR229      0.1862
      3  C        -12.5820   76.1560    1.1160 C.2   229  THR229      0.2287
      4  O        -12.1830   76.2940    2.2610 O.2   229  THR229     -0.2866
      5  CB       -14.1950   77.8950    0.6100 C.3   229  THR229      0.1770
      6  OG1      -13.0100   78.4060   -0.0160 O.3   229  THR229     -0.2211
      7  CG2      -14.3990   78.5790    1.9620 C.3   229  THR229      0.0375
      8  N        -10.4050   77.9720    0.8660 N.3   231  GLU231     -0.1245
      9  CA        -9.8810   79.2420    1.3330 C.3   231  GLU231      0.1567
     10  C         -9.4220   79.0470    2.7560 C.2   231  GLU231      0.2260
     11  O         -8.3590   79.5190    3.1660 O.2   231  GLU231     -0.2867
     12  CB       -10.9640   80.3100    1.3290 C.3   231  GLU231      0.0388
     13  CG       -10.5100   81.5550    2.0580 C.3   231  GLU231      0.1160
     14  CD       -11.6570   82.3760    2.5630 C.2   231  GLU231      0.3649
     15  OE1      -11.4140   83.3270    3.3460 O.co2 231  GLU231     -0.2457
     16  OE2      -12.8000   82.0650    2.1720 O.co2 231  GLU231     -0.2457
     17  N        -21.4820   73.1640    2.7750 N.3   260  ARG260     -0.1245
     18  CA       -22.2060   74.2740    3.3600 C.3   260  ARG260      0.1563
     19  C        -23.5900   73.8690    3.8400 C.2   260  ARG260      0.2260
     20  O        -24.3370   73.2100    3.1130 O.2   260  ARG260     -0.2867
     21  CB       -22.3120   75.4000    2.3470 C.3   260  ARG260      0.0307
     22  CG       -20.9840   75.7500    1.7710 C.3   260  ARG260      0.0489
     23  CD       -20.8920   77.1930    1.4210 C.3   260  ARG260      0.2205
     24  NE       -19.6370   77.4600    0.7410 N.pl3 260  ARG260     -0.0865
     25  CZ       -19.2710   78.6580    0.3110 C.cat 260  ARG260      0.5346
     26  NH1      -18.1090   78.8060   -0.3020 N.pl3 260  ARG260      0.1354
     27  NH2      -20.0620   79.7050    0.5030 N.pl3 260  ARG260      0.1354
     28  N        -25.8930   75.7110    4.1560 N.3   262  GLU262     -0.1245
     29  CA       -26.7850   76.5380    3.3560 C.3   262  GLU262      0.1567
     30  C        -28.1210   76.7100    4.0650 C.2   262  GLU262      0.2260
     31  O        -29.1940   76.5990    3.4490 O.2   262  GLU262     -0.2867
     32  CB       -26.9800   75.8790    1.9810 C.3   262  GLU262      0.0388
     33  CG       -27.0190   76.8510    0.8060 C.3   262  GLU262      0.1160
     34  CD       -25.7560   77.7210    0.6950 C.2   262  GLU262      0.3649
     35  OE1      -24.6560   77.1720    0.4700 O.co2 262  GLU262     -0.2457
     36  OE2      -25.8600   78.9610    0.8310 O.co2 262  GLU262     -0.2457
     37  N        -28.0510   72.6130   -9.5430 N.3   273  ILE273     -0.1231
     38  CA       -26.9000   72.3220   -8.7160 C.3   273  ILE273      0.1692
     39  C        -26.1500   73.6030   -8.4520 C.2   273  ILE273      0.2592
     40  O        -24.9600   73.5510   -8.1510 O.2   273  ILE273     -0.2718
     41  CB       -25.9130   71.3290   -9.3540 C.3   273  ILE273      0.0266
     42  CG1      -25.3890   71.8590  -10.6820 C.3   273  ILE273      0.0019
     43  CG2      -26.5790   70.0120   -9.5660 C.3   273  ILE273      0.0020
     44  CD1      -24.4480   70.8790  -11.3800 C.3   273  ILE273      0.0001
     45  N        -26.8360   74.7450   -8.5530 N.am  274  ILE274     -0.1966
     46  CA       -26.2090   76.0600   -8.3090 C.3   274  ILE274      0.1727
     47  C        -26.0690   76.3810   -6.8010 C.2   274  ILE274      0.2616
     48  O        -25.2530   77.2120   -6.4130 O.2   274  ILE274     -0.2715
     49  CB       -27.0070   77.2070   -9.0300 C.3   274  ILE274      0.0290
     50  CG1      -26.9840   76.9810  -10.5400 C.3   274  ILE274      0.0022
     51  CG2      -26.4030   78.5690   -8.7190 C.3   274  ILE274      0.0023
     52  CD1      -27.5110   78.1380  -11.3410 C.3   274  ILE274      0.0001
     53  N        -26.8840   75.7230   -5.9780 N.am  275  ARG275     -0.1963
     54  CA       -26.8700   75.8680   -4.5190 C.3   275  ARG275      0.1729
     55  C        -26.9890   74.4550   -3.9560 C.2   275  ARG275      0.2616
     56  O        -28.0840   73.8800   -3.9510 O.2   275  ARG275     -0.2715
     57  CB       -28.0570   76.6950   -4.0380 C.3   275  ARG275      0.0348
     58  CG       -27.8400   78.1920   -4.1340 C.3   275  ARG275      0.0492
     59  CD       -27.8960   78.8510   -2.7510 C.3   275  ARG275      0.2205
     60  NE       -26.8240   79.8300   -2.5690 N.pl3 275  ARG275     -0.0865
     61  CZ       -26.6950   80.6240   -1.5070 C.cat 275  ARG275      0.5346
     62  NH1      -27.5760   80.5710   -0.5130 N.pl3 275  ARG275      0.1354
     63  NH2      -25.6730   81.4700   -1.4310 N.pl3 275  ARG275      0.1354
     64  N        -25.8710   73.9010   -3.4910 N.am  276  GLN276     -0.1977
     65  CA       -25.8430   72.5380   -2.9750 C.3   276  GLN276      0.1601
     66  C        -25.0950   72.4840   -1.6680 C.2   276  GLN276      0.2287
     67  O        -24.3770   73.4170   -1.3500 O.2   276  GLN276     -0.2864
     68  CB       -25.1340   71.6330   -3.9740 C.3   276  GLN276      0.0394
     69  CG       -25.8080   71.5560   -5.3170 C.3   276  GLN276      0.0908
     70  CD       -27.1140   70.7920   -5.2690 C.2   276  GLN276      0.2608
     71  OE1      -27.1560   69.5760   -5.4820 O.2   276  GLN276     -0.2717
     72  NE2      -28.1950   71.5070   -4.9820 N.am  276  GLN276     -0.0878
     73  N        -20.1700   70.8730   -3.1090 N.3   279  PHE279     -0.1241
     74  CA       -19.8150   71.2850   -4.4530 C.3   279  PHE279      0.1605
     75  C        -18.3400   71.3820   -4.6580 C.2   279  PHE279      0.2264
     76  O        -17.5990   71.6960   -3.7460 O.2   279  PHE279     -0.2867
     77  CB       -20.4450   72.6280   -4.8210 C.3   279  PHE279      0.0534
     78  CG       -20.0160   73.7620   -3.9640 C.ar  279  PHE279     -0.0203
     79  CD1      -20.6130   73.9830   -2.7350 C.ar  279  PHE279     -0.0042
     80  CD2      -19.0450   74.6440   -4.4090 C.ar  279  PHE279     -0.0042
     81  CE1      -20.2500   75.0810   -1.9530 C.ar  279  PHE279     -0.0003
     82  CE2      -18.6680   75.7460   -3.6450 C.ar  279  PHE279     -0.0003
     83  CZ       -19.2710   75.9700   -2.4130 C.ar  279  PHE279     -0.0000
     84  N        -14.9210   73.0230   -6.0980 N.3   281  LYS281     -0.1245
     85  CA       -14.4410   74.3750   -6.3370 C.3   281  LYS281      0.1561
     86  C        -12.9290   74.4490   -6.3120 C.2   281  LYS281      0.2260
     87  O        -12.2910   73.9290   -5.4100 O.2   281  LYS281     -0.2867
     88  CB       -15.0090   75.3480   -5.2970 C.3   281  LYS281      0.0271
     89  CG       -14.3700   76.7380   -5.3530 C.3   281  LYS281      0.0035
     90  CD       -15.0920   77.7650   -4.4550 C.3   281  LYS281      0.0206
     91  CE       -14.7890   77.6000   -2.9680 C.3   281  LYS281      0.1093
     92  NZ       -13.3380   77.8350   -2.6300 N.3   281  LYS281     -0.1314
     93  N        -10.2030   76.7940   -5.6810 N.3   283  GLU283     -0.1245
     94  CA        -9.9550   78.0910   -5.0840 C.3   283  GLU283      0.1567
     95  C         -8.6190   78.6630   -5.5280 C.2   283  GLU283      0.2260
     96  O         -7.8100   77.9660   -6.1450 O.2   283  GLU283     -0.2867
     97  CB        -9.9660   77.9460   -3.5640 C.3   283  GLU283      0.0388
     98  CG        -9.7960   79.2370   -2.8550 C.3   283  GLU283      0.1160
     99  CD       -11.0430   80.0290   -2.8950 C.2   283  GLU283      0.3649
    100  OE1      -11.8450   79.7750   -3.8180 O.co2 283  GLU283     -0.2457
    101  OE2      -11.2150   80.9010   -2.0180 O.co2 283  GLU283     -0.2457
    102  N        -23.5880   84.5050  -10.2310 N.3   347  GLU347     -0.1231
    103  CA       -22.3100   84.3930   -9.5100 C.3   347  GLU347      0.1699
    104  C        -21.6140   83.0440   -9.7430 C.2   347  GLU347      0.2592
    105  O        -22.1960   81.9750   -9.5070 O.2   347  GLU347     -0.2718
    106  CB       -22.5470   84.5960   -7.9990 C.3   347  GLU347      0.0402
    107  CG       -21.3200   84.6070   -7.0830 C.3   347  GLU347      0.1161
    108  CD       -21.6870   84.9070   -5.6230 C.2   347  GLU347      0.3649
    109  OE1      -22.8910   84.8500   -5.2850 O.co2 347  GLU347     -0.2457
    110  OE2      -20.7800   85.1910   -4.7980 O.co2 347  GLU347     -0.2457
    111  N        -20.3780   83.0900  -10.2300 N.am  348  ILE348     -0.1966
    112  CA       -19.6370   81.8650  -10.4410 C.3   348  ILE348      0.1727
    113  C        -18.2690   82.0390   -9.8390 C.2   348  ILE348      0.2617
    114  O        -17.4730   81.1040   -9.8160 O.2   348  ILE348     -0.2715
    115  CB       -19.4660   81.5000  -11.9190 C.3   348  ILE348      0.0290
    116  CG1      -19.0630   80.0190  -12.0160 C.3   348  ILE348      0.0022
    117  CG2      -18.3890   82.3800  -12.5590 C.3   348  ILE348      0.0023
    118  CD1      -19.0100   79.4330  -13.4250 C.3   348  ILE348      0.0001
    119  N        -17.9770   83.2480   -9.3760 N.am  349  SER349     -0.1936
    120  CA       -16.6890   83.5010   -8.7470 C.3   349  SER349      0.2055
    121  C        -16.7970   84.6790   -7.8220 C.2   349  SER349      0.2643
    122  O        -17.6410   85.5440   -8.0190 O.2   349  SER349     -0.2714
    123  CB       -15.5870   83.7400   -9.7800 C.3   349  SER349      0.2130
    124  OG       -15.0350   82.5020  -10.2310 O.3   349  SER349     -0.2179
    125  N        -15.9340   84.7160   -6.8150 N.am  350  SER350     -0.1949
    126  CA       -15.9850   85.7760   -5.8330 C.3   350  SER350      0.1924
    127  C        -14.5810   86.0280   -5.3370 C.2   350  SER350      0.2314
    128  O        -14.1080   85.3880   -4.4040 O.2   350  SER350     -0.2863
    129  CB       -16.9020   85.3450   -4.6890 C.3   350  SER350      0.2116
    130  OG       -17.0350   86.3560   -3.7150 O.3   350  SER350     -0.2180
    131  N         -8.2510   85.8890   -1.9090 N.3   380  ASN380     -0.1225
    132  CA        -8.7230   84.6010   -2.3730 C.3   380  ASN380      0.1785
    133  C         -9.9270   84.8000   -3.2800 C.2   380  ASN380      0.2598
    134  O        -10.6190   85.8150   -3.1870 O.2   380  ASN380     -0.2718
    135  CB        -9.1040   83.7390   -1.1860 C.3   380  ASN380      0.1169
    136  CG       -10.1930   84.3600   -0.3510 C.2   380  ASN380      0.2627
    137  OD1      -11.3590   84.4770   -0.7810 O.2   380  ASN380     -0.2716
    138  ND2       -9.8240   84.7730    0.8610 N.am  380  ASN380     -0.0877
    139  N        -10.1700   83.8340   -4.1580 N.am  381  GLY381     -0.1942
    140  CA       -11.2950   83.9310   -5.0660 C.3   381  GLY381      0.2014
    141  C        -11.4820   82.6510   -5.8530 C.2   381  GLY381      0.2639
    142  O        -10.5270   81.9320   -6.1310 O.2   381  GLY381     -0.2714
    143  N        -12.7150   82.3620   -6.2320 N.am  382  SER382     -0.1949
    144  CA       -12.9880   81.1420   -6.9740 C.3   382  SER382      0.1924
    145  C        -12.3550   81.0630   -8.3570 C.2   382  SER382      0.2314
    146  O        -12.6580   81.8480   -9.2540 O.2   382  SER382     -0.2863
    147  CB       -14.4960   80.9400   -7.0900 C.3   382  SER382      0.2116
    148  OG       -15.1010   81.1290   -5.8230 O.3   382  SER382     -0.2180
    149  N        -16.0480   77.7720   -9.3640 N.3   385  ALA385     -0.1245
    150  CA       -16.8150   76.8320   -8.5840 C.3   385  ALA385      0.1562
    151  C        -17.1610   75.8310   -9.6500 C.2   385  ALA385      0.2260
    152  O        -18.0240   76.0890  -10.4760 O.2   385  ALA385     -0.2867
    153  CB       -18.0780   77.4930   -8.0610 C.3   385  ALA385      0.0290
    154  N        -18.9450   73.1280   -9.9110 N.3   387  GLY387     -0.1210
    155  CA       -20.3450   72.7820  -10.0870 C.3   387  GLY387      0.1956
    156  C        -21.1470   73.7120  -10.9720 C.2   387  GLY387      0.2611
    157  O        -21.8470   73.2470  -11.8650 O.2   387  GLY387     -0.2717
    158  N        -21.0660   75.0180  -10.7080 N.am  388  ARG388     -0.1979
    159  CA       -21.7850   76.0280  -11.4890 C.3   388  ARG388      0.1597
    160  C        -21.2030   76.1590  -12.9060 C.2   388  ARG388      0.2287
    161  O        -21.8850   76.5860  -13.8470 O.2   388  ARG388     -0.2864
    162  CB       -21.7390   77.3760  -10.7740 C.3   388  ARG388      0.0334
    163  CG       -22.4640   77.3580   -9.4480 C.3   388  ARG388      0.0492
    164  CD       -22.5320   78.7250   -8.7840 C.3   388  ARG388      0.2205
    165  NE       -23.4620   78.7110   -7.6590 N.pl3 388  ARG388     -0.0865
    166  CZ       -23.8460   79.7920   -6.9900 C.cat 388  ARG388      0.5346
    167  NH1      -24.7000   79.6800   -5.9830 N.pl3 388  ARG388      0.1354
    168  NH2      -23.3810   80.9840   -7.3240 N.pl3 388  ARG388      0.1354
@<TRIPOS>BOND
     1   161   160    2
     2   118   116    1
     3   160   159    1
     4   117   115    1
     5   116   115    1
     6   115   112    1
     7   157   156    2
     8   159   162    1
     9   159   158    1
    10    44    42    1
    11    52    50    1
    12   156   158   am
    13   156   155    1
    14   162   163    1
    15    42    41    1
    16    50    49    1
    17   152   151    2
    18   112   111    1
    19   112   113    1
    20   124   123    1
    21   102   103    1
    22   111   104   am
    23   155   154    1
    24   113   114    2
    25   113   119   am
    26   123   120    1
    27   104   103    1
    28   104   105    2
    29   151   150    1
    30    43    41    1
    31    37    38    1
    32   103   106    1
    33   163   164    1
    34   119   120    1
    35   149   150    1
    36    41    38    1
    37   146   145    2
    38    49    51    1
    39    49    46    1
    40   164   165    1
    41   120   121    1
    42    38    39    1
    43   150   153    1
    44    45    39   am
    45    45    46    1
    46    39    40    2
    47   145   144    1
    48    46    47    1
    49   122   121    2
    50   106   107    1
    51   121   125   am
    52   165   166    2
    53   168   166    1
    54   147   144    1
    55   147   148    1
    56   107   108    1
    57   166   167    1
    58   144   143    1
    59   125   126    1
    60    47    48    2
    61    47    53   am
    62    85    86    1
    63    85    84    1
    64    85    88    1
    65    86    87    2
    66   143   141   am
    67    96    95    2
    68   142   141    2
    69    53    54    1
    70   141   140    1
    71   126   127    1
    72   126   129    1
    73    93    94    1
    74   108   109   ar
    75   108   110   ar
    76    95    94    1
    77    71    70    2
    78    89    88    1
    79    89    90    1
    80   127   128    2
    81    69    70    1
    82    69    68    1
    83    70    72   am
    84    94    97    1
    85   140   139    1
    86    77    74    1
    87    77    78    1
    88   129   130    1
    89    75    74    1
    90    75    76    2
    91    54    57    1
    92    54    55    1
    93    90    91    1
    94    74    73    1
    95    80    78   ar
    96    80    82   ar
    97   139   133   am
    98    58    57    1
    99    58    59    1
   100    68    65    1
   101    78    79   ar
   102    55    56    2
   103    55    64   am
   104   100    99   ar
   105    82    83   ar
   106    97    98    1
   107    64    65    1
   108   133   134    2
   109   133   132    1
   110    65    66    1
   111    91    92    1
   112    99    98    1
   113    99   101   ar
   114    59    60    1
   115    79    81   ar
   116    60    61    2
   117    83    81   ar
   118   132   131    1
   119   132   135    1
   120    66    67    2
   121    61    63    1
   122    61    62    1
   123   135   136    1
   124   137   136    2
   125   136   138   am
   126    26    25    1
   127     6     5    1
   128    25    27    1
   129    25    24    2
   130    35    34   ar
   131     5     2    1
   132     5     7    1
   133    34    33    1
   134    34    36   ar
   135    24    23    1
   136     2     3    1
   137     2     1    1
   138    33    32    1
   139     8     9    1
   140     3     4    2
   141    12     9    1
   142    12    13    1
   143     9    10    1
   144    23    22    1
   145    22    21    1
   146    32    29    1
   147    13    14    1
   148    16    14   ar
   149    21    18    1
   150    14    15   ar
   151    10    11    2
   152    17    18    1
   153    20    19    2
   154    29    30    1
   155    29    28    1
   156    18    19    1
   157    31    30    2
