@<TRIPOS>MOLECULE
tmp/2dq4A00.pdb
 79 75 0 0 0
SMALL
GASTEIGER

@<TRIPOS>ATOM
      1  N         69.1780   20.9570   39.3830 N.3    39  GLY39      -0.1225
      2  CA        67.8280   20.8460   38.8400 C.3    39  GLY39       0.1811
      3  C         66.8460   21.9450   39.2220 C.2    39  GLY39       0.2280
      4  O         66.0640   22.4060   38.3780 O.2    39  GLY39      -0.2866
      5  N         70.5340    5.8180   40.5030 N.3   172  GLY172     -0.1225
      6  CA        70.6450    7.2010   40.0920 C.3   172  GLY172      0.1811
      7  C         72.0780    7.6530   40.2660 C.2   172  GLY172      0.2280
      8  O         72.5360    7.7920   41.4050 O.2   172  GLY172     -0.2866
      9  N         73.2680   10.5350   39.0240 N.3   174  GLY174     -0.1210
     10  CA        73.3400   11.9610   38.7890 C.3   174  GLY174      0.1940
     11  C         74.2980   12.5620   39.8230 C.2   174  GLY174      0.2454
     12  O         74.8600   11.8320   40.6300 O.2   174  GLY174     -0.2732
     13  N         74.4940   13.8860   39.8510 N.am  175  PRO175     -0.2717
     14  CA        75.4210   14.4830   40.8260 C.3   175  PRO175      0.1535
     15  C         75.2960   14.0410   42.2910 C.2   175  PRO175      0.2598
     16  O         76.2850   13.6520   42.9120 O.2   175  PRO175     -0.2715
     17  CB        75.1780   15.9870   40.6600 C.3   175  PRO175      0.0310
     18  CG        74.7560   16.0970   39.2130 C.3   175  PRO175      0.0237
     19  CD        73.8000   14.9350   39.0790 C.3   175  PRO175      0.0939
     20  N         74.0950   14.1160   42.8510 N.am  176  ILE176     -0.1964
     21  CA        73.9250   13.7420   44.2420 C.3   176  ILE176      0.1727
     22  C         74.1850   12.2600   44.4890 C.2   176  ILE176      0.2616
     23  O         74.9300   11.8920   45.4120 O.2   176  ILE176     -0.2715
     24  CB        72.5270   14.1540   44.7500 C.3   176  ILE176      0.0290
     25  CG1       72.4180   15.6860   44.7050 C.3   176  ILE176      0.0022
     26  CG2       72.3080   13.6370   46.1680 C.3   176  ILE176      0.0023
     27  CD1       71.0680   16.2550   45.1100 C.3   176  ILE176      0.0001
     28  N         73.5910   11.4200   43.6490 N.am  177  GLY177     -0.1955
     29  CA        73.7710    9.9860   43.7750 C.3   177  GLY177      0.1869
     30  C         75.2350    9.6050   43.6910 C.2   177  GLY177      0.2309
     31  O         75.6730    8.6400   44.3250 O.2   177  GLY177     -0.2863
     32  N         77.2190    9.1080   33.2780 N.3   201  ARG201     -0.1245
     33  CA        77.0590    9.2640   34.7170 C.3   201  ARG201      0.1563
     34  C         77.6290    8.0550   35.4470 C.2   201  ARG201      0.2260
     35  O         78.3390    8.1780   36.4560 O.2   201  ARG201     -0.2867
     36  CB        75.5840    9.3710   35.0490 C.3   201  ARG201      0.0307
     37  CG        74.9500   10.6680   34.6200 C.3   201  ARG201      0.0489
     38  CD        73.4670   10.6010   34.9280 C.3   201  ARG201      0.2205
     39  NE        72.8890   11.9180   35.1530 N.pl3 201  ARG201     -0.0865
     40  CZ        71.6340   12.1170   35.5660 C.cat 201  ARG201      0.5346
     41  NH1       70.8170   11.0750   35.7950 N.pl3 201  ARG201      0.1354
     42  NH2       71.1940   13.3630   35.7820 N.pl3 201  ARG201      0.1354
     43  N         67.9470    8.0240   44.2460 N.3   238  PHE238     -0.1227
     44  CA        68.1410    9.4270   43.8590 C.3   238  PHE238      0.1736
     45  C         67.4690    9.8710   42.5540 C.2   238  PHE238      0.2596
     46  O         67.3700   11.0540   42.2970 O.2   238  PHE238     -0.2718
     47  CB        69.6330    9.7500   43.7440 C.3   238  PHE238      0.0547
     48  CG        70.3970    9.5240   45.0050 C.ar  238  PHE238     -0.0202
     49  CD1       71.0610    8.3140   45.2280 C.ar  238  PHE238     -0.0042
     50  CD2       70.4040   10.4910   46.0100 C.ar  238  PHE238     -0.0042
     51  CE1       71.7100    8.0750   46.4250 C.ar  238  PHE238     -0.0003
     52  CE2       71.0550   10.2490   47.2160 C.ar  238  PHE238     -0.0003
     53  CZ        71.7070    9.0410   47.4210 C.ar  238  PHE238     -0.0000
     54  N         67.0020    8.9350   41.7430 N.am  239  SER239     -0.1952
     55  CA        66.4280    9.2740   40.4520 C.3   239  SER239      0.1924
     56  C         64.9680    9.7100   40.3610 C.2   239  SER239      0.2314
     57  O         64.6140   10.4610   39.4470 O.2   239  SER239     -0.2863
     58  CB        66.6420    8.1210   39.4810 C.3   239  SER239      0.2116
     59  OG        65.6830    7.1120   39.6930 O.3   239  SER239     -0.2180
     60  N         65.5470   10.2120   48.2930 N.3   261  LEU261     -0.1231
     61  CA        65.7880   11.6330   48.1100 C.3   261  LEU261      0.1693
     62  C         65.1030   12.0090   46.7950 C.2   261  LEU261      0.2593
     63  O         64.5880   13.1130   46.6380 O.2   261  LEU261     -0.2718
     64  CB        67.2760   11.9270   48.0030 C.3   261  LEU261      0.0284
     65  CG        67.5730   13.4210   47.8790 C.3   261  LEU261      0.0019
     66  CD1       67.3950   14.0960   49.2310 C.3   261  LEU261      0.0001
     67  CD2       68.9780   13.6240   47.3930 C.3   261  LEU261      0.0001
     68  N         65.0710   11.0550   45.8710 N.am  262  GLY262     -0.1942
     69  CA        64.4740   11.2620   44.5590 C.3   262  GLY262      0.2014
     70  C         63.0270   11.7110   44.4810 C.2   262  GLY262      0.2638
     71  O         62.1480   11.1510   45.1250 O.2   262  GLY262     -0.2714
     72  N         62.7680   12.7250   43.6690 N.am  263  ILE263     -0.1977
     73  CA        61.4110   13.2270   43.5320 C.3   263  ILE263      0.1596
     74  C         60.7880   12.8150   42.1880 C.2   263  ILE263      0.2287
     75  O         61.1740   13.3150   41.1400 O.2   263  ILE263     -0.2864
     76  CB        61.3820   14.7730   43.6560 C.3   263  ILE263      0.0276
     77  CG1       62.0290   15.2200   44.9670 C.3   263  ILE263      0.0022
     78  CG2       59.9420   15.2690   43.6400 C.3   263  ILE263      0.0022
     79  CD1       61.2440   14.8570   46.1900 C.3   263  ILE263      0.0001
@<TRIPOS>BOND
     1    32    33    1
     2    37    38    1
     3    37    36    1
     4    33    36    1
     5    33    34    1
     6    38    39    1
     7    39    40    2
     8    34    35    2
     9    40    42    1
    10    40    41    1
    11     4     3    2
    12    10     9    1
    13    10    11    1
    14     2     3    1
    15     2     1    1
    16    19    18    1
    17    19    13    1
    18    18    17    1
    19    57    56    2
    20    58    59    1
    21    58    55    1
    22    11    13   am
    23    11    12    2
    24    13    14    1
    25     6     7    1
    26     6     5    1
    27     7     8    2
    28    56    55    1
    29    55    54    1
    30    17    14    1
    31    14    15    1
    32    75    74    2
    33    54    45   am
    34    74    73    1
    35    15    20   am
    36    15    16    2
    37    46    45    2
    38    45    44    1
    39    20    21    1
    40    73    76    1
    41    73    72    1
    42    78    76    1
    43    28    29    1
    44    28    22   am
    45    76    77    1
    46    72    70   am
    47    30    29    1
    48    30    31    2
    49    47    44    1
    50    47    48    1
    51    44    43    1
    52    21    22    1
    53    21    24    1
    54    70    69    1
    55    70    71    2
    56    22    23    2
    57    69    68    1
    58    25    24    1
    59    25    27    1
    60    24    26    1
    61    77    79    1
    62    48    49   ar
    63    48    50   ar
    64    49    51   ar
    65    68    62   am
    66    50    52   ar
    67    51    53   ar
    68    63    62    2
    69    62    61    1
    70    52    53   ar
    71    67    65    1
    72    65    64    1
    73    65    66    1
    74    64    61    1
    75    61    60    1
