@<TRIPOS>MOLECULE
tmp/2dqaA00.pdb
 125 123 0 0 0
SMALL
GASTEIGER

@<TRIPOS>ATOM
      1  N         19.3000    9.5620   11.3660 N.3    42  LYS42      -0.1245
      2  CA        19.0590   10.4200   10.2060 C.3    42  LYS42       0.1561
      3  C         18.0880    9.7460    9.2470 C.2    42  LYS42       0.2260
      4  O         17.8700    8.5370    9.3170 O.2    42  LYS42      -0.2867
      5  CB        20.3670   10.7470    9.4850 C.3    42  LYS42       0.0271
      6  CG        21.3240   11.6130   10.2900 C.3    42  LYS42       0.0035
      7  CD        22.5960   11.8610    9.5030 C.3    42  LYS42       0.0206
      8  CE        23.5320   12.7800   10.2480 C.3    42  LYS42       0.1093
      9  NZ        24.8400   12.8750    9.5530 N.3    42  LYS42      -0.1314
     10  N         18.1360    9.0270    5.8390 N.3    44  PRO44      -0.2102
     11  CA        18.5840    7.9110    4.9880 C.3    44  PRO44       0.1504
     12  C         18.7820    6.5960    5.7530 C.2    44  PRO44       0.2575
     13  O         18.5170    5.5190    5.2070 O.2    44  PRO44      -0.2718
     14  CB        19.9160    8.4170    4.4140 C.3    44  PRO44       0.0282
     15  CG        19.7910    9.9140    4.4570 C.3    44  PRO44       0.0208
     16  CD        19.0660   10.1700    5.7560 C.3    44  PRO44       0.0893
     17  N         19.2430    6.6950    7.0010 N.am   45  TYR45      -0.1977
     18  CA        19.4330    5.5420    7.8830 C.3    45  TYR45       0.1639
     19  C         18.0930    4.8530    8.1390 C.2    45  TYR45       0.2290
     20  O         17.9880    3.6270    8.0390 O.2    45  TYR45      -0.2864
     21  CB        20.0640    6.0240    9.1910 C.3    45  TYR45       0.0560
     22  CG        20.5010    4.9820   10.2070 C.ar   45  TYR45      -0.0198
     23  CD1       19.5670    4.3160   11.0070 C.ar   45  TYR45      -0.0009
     24  CD2       21.8560    4.7230   10.4230 C.ar   45  TYR45      -0.0009
     25  CE1       19.9710    3.3920   11.9600 C.ar   45  TYR45       0.0417
     26  CE2       22.2720    3.8120   11.3890 C.ar   45  TYR45       0.0417
     27  CZ        21.3180    3.1530   12.1520 C.ar   45  TYR45       0.1957
     28  OH        21.7040    2.2480   13.1100 O.3    45  TYR45      -0.2866
     29  N         15.3960    5.0440    6.2650 N.3    47  ILE47      -0.1231
     30  CA        14.9900    4.4360    4.9990 C.3    47  ILE47       0.1692
     31  C         15.6890    3.0800    4.8140 C.2    47  ILE47       0.2592
     32  O         15.0500    2.0740    4.4800 O.2    47  ILE47      -0.2718
     33  CB        15.2740    5.3750    3.8050 C.3    47  ILE47       0.0266
     34  CG1       14.3790    6.6180    3.8760 C.3    47  ILE47       0.0019
     35  CG2       15.0710    4.6480    2.4790 C.3    47  ILE47       0.0020
     36  CD1       14.7940    7.7410    2.9280 C.3    47  ILE47       0.0001
     37  N         16.9940    3.0520    5.0720 N.am   48  ASP48      -0.1974
     38  CA        17.8010    1.8450    4.8830 C.3    48  ASP48       0.1709
     39  C         17.4680    0.7260    5.8640 C.2    48  ASP48       0.2293
     40  O         17.6290   -0.4560    5.5420 O.2    48  ASP48      -0.2864
     41  CB        19.2880    2.1810    4.9830 C.3    48  ASP48       0.1436
     42  CG        19.8610    2.7040    3.6820 C.2    48  ASP48       0.3671
     43  OD1       19.0850    2.9710    2.7370 O.co2  48  ASP48      -0.2456
     44  OD2       21.0980    2.8330    3.6050 O.co2  48  ASP48      -0.2456
     45  N         19.5040   -2.0870   10.6110 N.3    73  TYR73      -0.1241
     46  CA        20.6280   -1.4570    9.9130 C.3    73  TYR73       0.1605
     47  C         21.8820   -2.3260    9.9930 C.2    73  TYR73       0.2264
     48  O         22.5930   -2.4980    8.9950 O.2    73  TYR73      -0.2867
     49  CB        20.9130   -0.0810   10.5100 C.3    73  TYR73       0.0534
     50  CG        21.7910    0.8070    9.6570 C.ar   73  TYR73      -0.0201
     51  CD1       23.1720    0.8730    9.8710 C.ar   73  TYR73      -0.0009
     52  CD2       21.2380    1.6020    8.6510 C.ar   73  TYR73      -0.0009
     53  CE1       23.9820    1.7030    9.0930 C.ar   73  TYR73       0.0417
     54  CE2       22.0380    2.4320    7.8680 C.ar   73  TYR73       0.0417
     55  CZ        23.4040    2.4810    8.0960 C.ar   73  TYR73       0.1957
     56  OH        24.1890    3.3160    7.3300 O.3    73  TYR73      -0.2866
     57  N         21.6240   -5.4530    7.9180 N.3    76  ARG76      -0.1231
     58  CA        21.8260   -5.1410    6.5080 C.3    76  ARG76       0.1694
     59  C         23.2980   -4.9190    6.1620 C.2    76  ARG76       0.2592
     60  O         23.8140   -5.5110    5.2110 O.2    76  ARG76      -0.2718
     61  CB        20.9940   -3.9180    6.1020 C.3    76  ARG76       0.0321
     62  CG        21.1640   -3.5080    4.6460 C.3    76  ARG76       0.0489
     63  CD        20.1980   -2.4130    4.2550 C.3    76  ARG76       0.2205
     64  NE        20.3550   -2.0520    2.8480 N.pl3  76  ARG76      -0.0865
     65  CZ        19.4590   -1.3670    2.1410 C.cat  76  ARG76       0.5346
     66  NH1       18.3220   -0.9590    2.7000 N.pl3  76  ARG76       0.1354
     67  NH2       19.7040   -1.0920    0.8670 N.pl3  76  ARG76       0.1354
     68  N         23.9700   -4.0810    6.9460 N.am   77  TYR77      -0.1976
     69  CA        25.2890   -3.5680    6.5780 C.3    77  TYR77       0.1639
     70  C         26.4920   -4.1360    7.3370 C.2    77  TYR77       0.2290
     71  O         27.5510   -4.3300    6.7400 O.2    77  TYR77      -0.2864
     72  CB        25.3030   -2.0440    6.6800 C.3    77  TYR77       0.0560
     73  CG        24.4790   -1.3290    5.6310 C.ar   77  TYR77      -0.0198
     74  CD1       23.5200   -0.3860    6.0010 C.ar   77  TYR77      -0.0009
     75  CD2       24.6710   -1.5780    4.2690 C.ar   77  TYR77      -0.0009
     76  CE1       22.7660    0.2910    5.0440 C.ar   77  TYR77       0.0417
     77  CE2       23.9220   -0.9080    3.3050 C.ar   77  TYR77       0.0417
     78  CZ        22.9760    0.0260    3.6990 C.ar   77  TYR77       0.1957
     79  OH        22.2380    0.6950    2.7440 O.3    77  TYR77      -0.2866
     80  N         29.3560   -5.6890    5.0050 N.3    81  TYR81      -0.1241
     81  CA        30.6600   -5.0270    4.9870 C.3    81  TYR81       0.1605
     82  C         31.7150   -5.6990    5.8700 C.2    81  TYR81       0.2264
     83  O         32.8250   -5.1850    6.0130 O.2    81  TYR81      -0.2867
     84  CB        30.5170   -3.5360    5.3000 C.3    81  TYR81       0.0534
     85  CG        29.9800   -2.7520    4.1240 C.ar   81  TYR81      -0.0201
     86  CD1       28.6210   -2.4840    4.0060 C.ar   81  TYR81      -0.0009
     87  CD2       30.8330   -2.2980    3.1170 C.ar   81  TYR81      -0.0009
     88  CE1       28.1190   -1.7730    2.9190 C.ar   81  TYR81       0.0417
     89  CE2       30.3430   -1.5850    2.0260 C.ar   81  TYR81       0.0417
     90  CZ        28.9870   -1.3260    1.9380 C.ar   81  TYR81       0.1957
     91  OH        28.4940   -0.6230    0.8650 O.3    81  TYR81      -0.2866
     92  N         29.2710    5.9940   11.4880 N.3    96  GLY96      -0.1210
     93  CA        29.9640    6.1740   10.2110 C.3    96  GLY96       0.1956
     94  C         29.2530    5.7110    8.9540 C.2    96  GLY96       0.2612
     95  O         29.7290    5.9660    7.8440 O.2    96  GLY96      -0.2717
     96  N         28.1160    5.0420    9.1120 N.am   97  GLY97      -0.1942
     97  CA        27.3740    4.5320    7.9600 C.3    97  GLY97       0.1998
     98  C         27.7170    3.0940    7.6240 C.2    97  GLY97       0.2481
     99  O         28.3450    2.4060    8.4290 O.2    97  GLY97      -0.2729
    100  N         27.3030    2.6310    6.4270 N.am   98  PRO98      -0.2715
    101  CA        27.3780    1.2190    6.0410 C.3    98  PRO98       0.1536
    102  C         28.7500    0.5780    6.2160 C.2    98  PRO98       0.2598
    103  O         28.8230   -0.6090    6.5270 O.2    98  PRO98      -0.2715
    104  CB        26.9620    1.2420    4.5670 C.3    98  PRO98       0.0310
    105  CG        26.0310    2.4130    4.4910 C.3    98  PRO98       0.0237
    106  CD        26.6960    3.4470    5.3580 C.3    98  PRO98       0.0939
    107  N         29.8180    1.3460    6.0190 N.am   99  ASN99      -0.1973
    108  CA        31.1710    0.8240    6.2240 C.3    99  ASN99       0.1688
    109  C         31.9470    1.6210    7.2790 C.2    99  ASN99       0.2292
    110  O         33.1800    1.7040    7.2440 O.2    99  ASN99      -0.2864
    111  CB        31.9280    0.7600    4.8900 C.3    99  ASN99       0.1181
    112  CG        33.0860   -0.2210    4.9170 C.2    99  ASN99       0.2629
    113  OD1       33.0760   -1.1930    5.6720 O.2    99  ASN99      -0.2716
    114  ND2       34.0880    0.0290    4.0840 N.am   99  ASN99      -0.0877
    115  N         38.0330    7.3040   11.3290 N.3   105  ARG105     -0.1245
    116  CA        37.3440    8.4670   11.8780 C.3   105  ARG105      0.1563
    117  C         36.3470    8.0920   12.9850 C.2   105  ARG105      0.2260
    118  O         36.1960    8.8160   13.9730 O.2   105  ARG105     -0.2867
    119  CB        36.6500    9.2070   10.7310 C.3   105  ARG105      0.0307
    120  CG        35.6200   10.2440   11.1260 C.3   105  ARG105      0.0489
    121  CD        34.7640   10.6380    9.9250 C.3   105  ARG105      0.2205
    122  NE        34.2790    9.4630    9.1980 N.pl3 105  ARG105     -0.0865
    123  CZ        33.1860    8.7710    9.5120 C.cat 105  ARG105      0.5346
    124  NH1       32.4300    9.1250   10.5460 N.pl3 105  ARG105      0.1354
    125  NH2       32.8450    7.7190    8.7820 N.pl3 105  ARG105      0.1354
@<TRIPOS>BOND
     1    91    90    1
     2    67    65    1
     3    90    89   ar
     4    90    88   ar
     5    89    87   ar
     6    65    66    1
     7    65    64    2
     8    35    33    1
     9    43    42   ar
    10    79    78    1
    11    64    63    1
    12    88    86   ar
    13    36    34    1
    14    87    85   ar
    15    77    78   ar
    16    77    75   ar
    17    44    42   ar
    18    42    41    1
    19    78    76   ar
    20    33    34    1
    21    33    30    1
    22    86    85   ar
    23   114   112   am
    24    85    84    1
    25    63    62    1
    26    75    73   ar
    27    14    15    1
    28    14    11    1
    29    15    16    1
    30    32    31    2
    31   105   104    1
    32   105   106    1
    33   104   101    1
    34    62    61    1
    35    31    30    1
    36    31    37   am
    37    38    41    1
    38    38    37    1
    39    38    39    1
    40   111   112    1
    41   111   108    1
    42   112   113    2
    43    81    80    1
    44    81    84    1
    45    81    82    1
    46    11    12    1
    47    11    10    1
    48    30    29    1
    49    76    74   ar
    50    13    12    2
    51    60    59    2
    52   106   100    1
    53    40    39    2
    54    73    74   ar
    55    73    72    1
    56    12    17   am
    57    16    10    1
    58    82    83    2
    59   107   102   am
    60   107   108    1
    61   101   102    1
    62   101   100    1
    63    61    58    1
    64    59    58    1
    65    59    68   am
    66   102   103    2
    67   108   109    1
    68   100    98   am
    69    58    57    1
    70    69    72    1
    71    69    68    1
    72    69    70    1
    73    71    70    2
    74    17    18    1
    75   110   109    2
    76    56    55    1
    77    98    97    1
    78    98    99    2
    79    95    94    2
    80    54    55   ar
    81    54    52   ar
    82    18    19    1
    83    18    21    1
    84    97    96    1
    85    20    19    2
    86    55    53   ar
    87    52    50   ar
    88   125   123    1
    89    94    96   am
    90    94    93    1
    91    48    47    2
    92    53    51   ar
    93    21    22    1
    94   122   123    2
    95   122   121    1
    96     3     4    2
    97     3     2    1
    98     5     2    1
    99     5     6    1
   100     7     8    1
   101     7     6    1
   102   123   124    1
   103     9     8    1
   104    50    51   ar
   105    50    49    1
   106    46    47    1
   107    46    49    1
   108    46    45    1
   109   121   120    1
   110     2     1    1
   111    22    24   ar
   112    22    23   ar
   113    93    92    1
   114    24    26   ar
   115   119   120    1
   116   119   116    1
   117    23    25   ar
   118   115   116    1
   119    26    27   ar
   120   116   117    1
   121    25    27   ar
   122    27    28    1
   123   117   118    2
