@<TRIPOS>MOLECULE
tmp/2dqkA00.pdb
 147 140 0 0 0
SMALL
GASTEIGER

@<TRIPOS>ATOM
      1  N        -27.0080   11.7980  -12.4920 N.3    67  ASN67      -0.1240
      2  CA       -25.6600   12.1300  -12.9490 C.3    67  ASN67       0.1653
      3  C        -24.5560   11.4630  -12.1170 C.2    67  ASN67       0.2266
      4  O        -23.6990   10.7610  -12.6600 O.2    67  ASN67      -0.2867
      5  CB       -25.4720   13.6490  -12.9500 C.3    67  ASN67       0.1155
      6  CG       -24.1260   14.0580  -13.4810 C.2    67  ASN67       0.2627
      7  OD1      -23.1320   14.0630  -12.7540 O.2    67  ASN67      -0.2716
      8  ND2      -24.0790   14.3900  -14.7650 N.am   67  ASN67      -0.0877
      9  N        -22.5450   13.2670   -9.8640 N.3    69  HIS69      -0.1241
     10  CA       -21.7600   14.3640   -9.3170 C.3    69  HIS69       0.1621
     11  C        -22.2320   14.8560   -7.9440 C.2    69  HIS69       0.2264
     12  O        -21.4470   14.9500   -7.0090 O.2    69  HIS69      -0.2867
     13  CB       -21.8190   15.5000  -10.3200 C.3    69  HIS69       0.0745
     14  CG       -20.9610   16.6710   -9.9860 C.ar   69  HIS69       0.0817
     15  ND1      -21.4200   17.7400   -9.2480 N.ar   69  HIS69      -0.2268
     16  CD2      -19.6880   16.9770  -10.3410 C.ar   69  HIS69       0.1154
     17  CE1      -20.4640   18.6450   -9.1470 C.ar   69  HIS69       0.1986
     18  NE2      -19.4040   18.2100   -9.8050 N.ar   69  HIS69      -0.2212
     19  N        -28.9130   21.4750  -11.1600 N.3    96  LEU96      -0.1245
     20  CA       -28.2630   21.0190  -12.3980 C.3    96  LEU96       0.1561
     21  C        -28.9920   19.7970  -12.9480 C.2    96  LEU96       0.2260
     22  O        -29.4180   18.9310  -12.1880 O.2    96  LEU96      -0.2867
     23  CB       -26.7950   20.6430  -12.1510 C.3    96  LEU96       0.0270
     24  CG       -25.8720   21.7050  -11.5400 C.3    96  LEU96       0.0019
     25  CD1      -24.4790   21.1160  -11.3430 C.3    96  LEU96       0.0001
     26  CD2      -25.8180   22.9730  -12.4100 C.3    96  LEU96       0.0001
     27  N        -27.1520   16.0000  -17.0050 N.3    99  ASN99      -0.1225
     28  CA       -25.9430   16.1640  -17.8050 C.3    99  ASN99       0.1785
     29  C        -24.9720   17.0830  -17.0780 C.2    99  ASN99       0.2598
     30  O        -23.8530   17.3350  -17.5430 O.2    99  ASN99      -0.2718
     31  CB       -26.2820   16.7030  -19.1930 C.3    99  ASN99       0.1169
     32  CG       -26.9430   15.6550  -20.0630 C.2    99  ASN99       0.2627
     33  OD1      -26.5360   14.4890  -20.0510 O.2    99  ASN99      -0.2716
     34  ND2      -27.9790   16.0500  -20.8050 N.am   99  ASN99      -0.0877
     35  N        -25.4170   17.5790  -15.9240 N.am  100  GLY100     -0.1942
     36  CA       -24.5910   18.4180  -15.0740 C.3   100  GLY100      0.2014
     37  C        -24.5540   19.8640  -15.4980 C.2   100  GLY100      0.2640
     38  O        -23.6450   20.6040  -15.1300 O.2   100  GLY100     -0.2714
     39  N        -25.5490   20.2770  -16.2720 N.am  101  SER101     -0.1935
     40  CA       -25.5980   21.6530  -16.7420 C.3   101  SER101      0.2055
     41  C        -26.8380   22.3600  -16.2060 C.2   101  SER101      0.2644
     42  O        -27.8130   21.7240  -15.8190 O.2   101  SER101     -0.2714
     43  CB       -25.5080   21.7260  -18.2800 C.3   101  SER101      0.2130
     44  OG       -26.7530   21.4700  -18.9100 O.3   101  SER101     -0.2179
     45  N        -26.7960   23.6820  -16.1660 N.am  102  GLY102     -0.1939
     46  CA       -27.9280   24.4210  -15.6450 C.3   102  GLY102      0.2014
     47  C        -27.8520   25.8880  -15.9940 C.2   102  GLY102      0.2639
     48  O        -26.7710   26.4290  -16.1730 O.2   102  GLY102     -0.2714
     49  N        -29.0010   26.5320  -16.0980 N.am  103  GLN103     -0.1963
     50  CA       -29.0370   27.9430  -16.4280 C.3   103  GLN103      0.1733
     51  C        -28.8350   28.7780  -15.1730 C.2   103  GLN103      0.2616
     52  O        -29.2150   28.3750  -14.0710 O.2   103  GLN103     -0.2715
     53  CB       -30.3630   28.2970  -17.0910 C.3   103  GLN103      0.0408
     54  CG       -30.6200   27.5210  -18.3920 C.3   103  GLN103      0.0908
     55  CD       -29.5020   27.7000  -19.4170 C.2   103  GLN103      0.2608
     56  OE1      -28.9080   26.7180  -19.8730 O.2   103  GLN103     -0.2717
     57  NE2      -29.2160   28.9480  -19.7800 N.am  103  GLN103     -0.0878
     58  N        -28.2280   29.9400  -15.3470 N.am  104  TYR104     -0.1974
     59  CA       -27.9390   30.8070  -14.2230 C.3   104  TYR104      0.1639
     60  C        -29.1790   31.1960  -13.4160 C.2   104  TYR104      0.2290
     61  O        -29.1120   31.3120  -12.1960 O.2   104  TYR104     -0.2864
     62  CB       -27.1870   32.0470  -14.7010 C.3   104  TYR104      0.0560
     63  CG       -25.6870   31.8690  -14.6970 C.ar  104  TYR104     -0.0198
     64  CD1      -25.0920   30.7540  -14.1040 C.ar  104  TYR104     -0.0009
     65  CD2      -24.8630   32.8310  -15.2640 C.ar  104  TYR104     -0.0009
     66  CE1      -23.7130   30.6020  -14.0880 C.ar  104  TYR104      0.0417
     67  CE2      -23.4970   32.6900  -15.2560 C.ar  104  TYR104      0.0417
     68  CZ       -22.9240   31.5860  -14.6680 C.ar  104  TYR104      0.1957
     69  OH       -21.5550   31.4900  -14.6740 O.3   104  TYR104     -0.2866
     70  N        -29.8780   28.3690  -11.0030 N.3   107  ILE107     -0.1245
     71  CA       -28.8760   28.3360   -9.9590 C.3   107  ILE107      0.1561
     72  C        -29.1420   29.4380   -8.9250 C.2   107  ILE107      0.2260
     73  O        -29.0540   29.2070   -7.7160 O.2   107  ILE107     -0.2867
     74  CB       -27.4750   28.4440  -10.6140 C.3   107  ILE107      0.0252
     75  CG1      -27.1890   27.1410  -11.3690 C.3   107  ILE107      0.0019
     76  CG2      -26.4190   28.7260   -9.5720 C.3   107  ILE107      0.0019
     77  CD1      -26.0400   27.2020  -12.3620 C.3   107  ILE107      0.0001
     78  N        -20.5340   23.2470   -5.8510 N.3   132  SER132     -0.1202
     79  CA       -19.4690   22.7430   -6.7140 C.3   132  SER132      0.2020
     80  C        -19.8820   22.9640   -8.1590 C.2   132  SER132      0.2619
     81  O        -20.1130   22.0120   -8.9090 O.2   132  SER132     -0.2717
     82  CB       -19.2340   21.2560   -6.4500 C.3   132  SER132      0.2103
     83  OG       -18.6700   21.0520   -5.1630 O.3   132  SER132     -0.2182
     84  N        -20.0050   24.2290   -8.5410 N.am  133  LEU133     -0.1965
     85  CA       -20.4390   24.5640   -9.8820 C.3   133  LEU133      0.1728
     86  C        -19.9590   25.9630  -10.2150 C.2   133  LEU133      0.2617
     87  O        -19.4420   26.6840   -9.3590 O.2   133  LEU133     -0.2715
     88  CB       -21.9760   24.4930   -9.9990 C.3   133  LEU133      0.0311
     89  CG       -22.8300   25.2690   -8.9790 C.3   133  LEU133      0.0022
     90  CD1      -22.7950   26.7720   -9.2630 C.3   133  LEU133      0.0001
     91  CD2      -24.2790   24.7810   -8.9420 C.3   133  LEU133      0.0001
     92  N        -20.1310   26.3430  -11.4710 N.am  134  GLY134     -0.1940
     93  CA       -19.7640   27.6740  -11.8850 C.3   134  GLY134      0.2014
     94  C        -19.6840   27.8010  -13.3870 C.2   134  GLY134      0.2639
     95  O        -19.7300   26.8080  -14.1280 O.2   134  GLY134     -0.2714
     96  N        -19.5630   29.0420  -13.8290 N.am  135  GLY135     -0.1954
     97  CA       -19.4060   29.3470  -15.2340 C.3   135  GLY135      0.1869
     98  C        -18.7650   30.7250  -15.3440 C.2   135  GLY135      0.2309
     99  O        -18.1390   31.1940  -14.3930 O.2   135  GLY135     -0.2863
    100  N        -16.6560   26.3420   -5.5440 N.3   158  ALA158     -0.1245
    101  CA       -15.4510   25.8900   -6.2310 C.3   158  ALA158      0.1562
    102  C        -14.7950   27.0370   -6.9780 C.2   158  ALA158      0.2260
    103  O        -15.4860   27.9050   -7.5240 O.2   158  ALA158     -0.2867
    104  CB       -15.7740   24.7500   -7.2020 C.3   158  ALA158      0.0290
    105  N        -13.0960   26.6190   -9.7370 N.3   160  GLY160     -0.1210
    106  CA       -13.2060   26.3380  -11.1640 C.3   160  GLY160      0.1956
    107  C        -11.9990   25.5560  -11.6680 C.2   160  GLY160      0.2611
    108  O        -10.9520   25.5370  -11.0110 O.2   160  GLY160     -0.2717
    109  N        -12.1360   24.9000  -12.8220 N.am  161  ASN161     -0.1974
    110  CA       -11.0510   24.0510  -13.3290 C.3   161  ASN161      0.1688
    111  C        -10.4500   24.4640  -14.6720 C.2   161  ASN161      0.2292
    112  O        -10.2080   23.6030  -15.5230 O.2   161  ASN161     -0.2864
    113  CB       -11.5410   22.6180  -13.4750 C.3   161  ASN161      0.1181
    114  CG       -12.4240   22.1750  -12.3220 C.2   161  ASN161      0.2629
    115  OD1      -11.9910   22.1170  -11.1710 O.2   161  ASN161     -0.2716
    116  ND2      -13.6840   21.8740  -12.6270 N.am  161  ASN161     -0.0877
    117  N        -11.8900   13.8680  -10.0160 N.3   221  SER221     -0.1202
    118  CA       -11.0530   15.0120   -9.6630 C.3   221  SER221      0.2020
    119  C        -11.7050   16.3490  -10.0190 C.2   221  SER221      0.2619
    120  O        -12.4600   16.4300  -10.9890 O.2   221  SER221     -0.2717
    121  CB        -9.7140   14.9150  -10.4070 C.3   221  SER221      0.2103
    122  OG        -8.9900   13.7620  -10.0300 O.3   221  SER221     -0.2182
    123  N        -11.4040   17.3920   -9.2480 N.am  222  GLY222     -0.1942
    124  CA       -11.9240   18.7230   -9.5480 C.3   222  GLY222      0.2014
    125  C        -11.9840   19.6570   -8.3530 C.2   222  GLY222      0.2640
    126  O        -11.8930   19.2000   -7.2020 O.2   222  GLY222     -0.2714
    127  N        -12.1430   20.9660   -8.6010 N.am  223  THR223     -0.1936
    128  CA       -12.2630   21.8820   -7.4740 C.3   223  THR223      0.2028
    129  C        -13.6450   21.5750   -6.8800 C.2   223  THR223      0.2643
    130  O        -14.0000   22.0100   -5.7910 O.2   223  THR223     -0.2714
    131  CB       -12.1800   23.3800   -7.8570 C.3   223  THR223      0.1808
    132  OG1      -13.1220   23.6700   -8.8820 O.3   223  THR223     -0.2208
    133  CG2      -10.7740   23.7160   -8.3280 C.3   223  THR223      0.0379
    134  N        -14.4010   20.8120   -7.6710 N.am  224  SER224     -0.1935
    135  CA       -15.7240   20.3920   -7.2490 C.3   224  SER224      0.2055
    136  C        -15.5580   19.4290   -6.1060 C.2   224  SER224      0.2642
    137  O        -16.4390   19.3080   -5.2600 O.2   224  SER224     -0.2714
    138  CB       -16.4970   19.7010   -8.3750 C.3   224  SER224      0.2130
    139  OG       -17.3690   20.6080   -9.0180 O.3   224  SER224     -0.2179
    140  N        -14.4160   18.7140   -6.0680 N.am  225  MET225     -0.1976
    141  CA       -14.1910   17.7360   -5.0180 C.3   225  MET225      0.1605
    142  C        -13.6260   18.4020   -3.7590 C.2   225  MET225      0.2287
    143  O        -13.8360   17.9320   -2.6350 O.2   225  MET225     -0.2864
    144  CB       -13.2780   16.6280   -5.5300 C.3   225  MET225      0.0413
    145  CG       -13.9920   15.5880   -6.3800 C.3   225  MET225      0.0598
    146  SD       -14.5950   16.2370   -7.9470 S.3   225  MET225     -0.1393
    147  CE       -16.3650   16.2560   -7.6470 C.3   225  MET225      0.0692
@<TRIPOS>BOND
     1    34    32   am
     2    32    33    2
     3    32    31    1
     4    56    55    2
     5    57    55   am
     6    55    54    1
     7    31    28    1
     8    44    43    1
     9    54    53    1
    10    43    40    1
    11    28    29    1
    12    28    27    1
    13    30    29    2
    14    53    50    1
    15    29    35   am
    16    40    39    1
    17    40    41    1
    18    50    49    1
    19    50    51    1
    20    39    37   am
    21    41    45   am
    22    41    42    2
    23    48    47    2
    24    45    46    1
    25    49    47   am
    26    47    46    1
    27    35    36    1
    28   112   111    2
    29    37    38    2
    30    37    36    1
    31    58    51   am
    32    58    59    1
    33    98    97    1
    34    98    99    2
    35    65    67   ar
    36    65    63   ar
    37    67    68   ar
    38    97    96    1
    39    51    52    2
    40     8     6   am
    41    62    63    1
    42    62    59    1
    43    63    64   ar
    44    69    68    1
    45   111   110    1
    46    68    66   ar
    47    59    60    1
    48    95    94    2
    49    64    66   ar
    50    96    94   am
    51     6     5    1
    52     6     7    2
    53   113   110    1
    54   113   114    1
    55    60    61    2
    56    94    93    1
    57   110   109    1
    58     5     2    1
    59     2     1    1
    60     2     3    1
    61    21    20    1
    62    21    22    2
    63   109   107   am
    64     4     3    2
    65   116   114   am
    66    26    24    1
    67    20    23    1
    68    20    19    1
    69    77    75    1
    70   114   115    2
    71    23    24    1
    72    93    92    1
    73   107   106    1
    74   107   108    2
    75    24    25    1
    76    92    86   am
    77    75    74    1
    78   106   105    1
    79    70    71    1
    80   120   119    2
    81    74    71    1
    82    74    76    1
    83   121   122    1
    84   121   118    1
    85    16    14   ar
    86    16    18   ar
    87    13    14    1
    88    13    10    1
    89    86    85    1
    90    86    87    2
    91   119   118    1
    92   119   123   am
    93   117   118    1
    94    88    85    1
    95    88    89    1
    96    14    15   ar
    97    71    72    1
    98    85    84    1
    99     9    10    1
   100    18    17   ar
   101   124   123    1
   102   124   125    1
   103    10    11    1
   104    90    89    1
   105    15    17   ar
   106   139   138    1
   107    89    91    1
   108    72    73    2
   109    81    80    2
   110   132   131    1
   111   127   125   am
   112   127   128    1
   113    84    80   am
   114   138   135    1
   115   125   126    2
   116   133   131    1
   117    80    79    1
   118   146   147    1
   119   146   145    1
   120    11    12    2
   121   131   128    1
   122   134   135    1
   123   134   129   am
   124   103   102    2
   125   128   129    1
   126   135   136    1
   127   104   101    1
   128   102   101    1
   129   129   130    2
   130    79    82    1
   131    79    78    1
   132    82    83    1
   133   145   144    1
   134   101   100    1
   135   136   140   am
   136   136   137    2
   137   140   141    1
   138   144   141    1
   139   141   142    1
   140   142   143    2
