@<TRIPOS>MOLECULE
tmp/2dqmA00.pdb
 186 178 0 0 0
SMALL
GASTEIGER

@<TRIPOS>ATOM
      1  N         60.3460   46.8910   11.0950 N.3   116  GLN116     -0.1245
      2  CA        61.7900   47.0660   11.1960 C.3   116  GLN116      0.1566
      3  C         62.0430   46.7830   12.6710 C.2   116  GLN116      0.2260
      4  O         61.6580   47.5750   13.5340 O.2   116  GLN116     -0.2867
      5  CB        62.2520   48.4800   10.8440 C.3   116  GLN116      0.0367
      6  CG        63.7710   48.6600   11.0200 C.3   116  GLN116      0.0905
      7  CD        64.5880   47.5170   10.4150 C.2   116  GLN116      0.2608
      8  OE1       64.2890   47.0340    9.3220 O.2   116  GLN116     -0.2717
      9  NE2       65.6330   47.0910   11.1250 N.am  116  GLN116     -0.0878
     10  N         65.3790   45.4880   14.0730 N.3   118  GLU118     -0.1231
     11  CA        66.7490   45.6610   14.5410 C.3   118  GLU118      0.1699
     12  C         67.0850   47.1380   14.7160 C.2   118  GLU118      0.2588
     13  O         66.7000   47.9750   13.9330 O.2   118  GLU118     -0.2718
     14  CB        67.7300   45.0200   13.5570 C.3   118  GLU118      0.0402
     15  CG        69.1850   45.1070   13.9850 C.3   118  GLU118      0.1161
     16  CD        70.1400   44.6370   12.9050 C.2   118  GLU118      0.3649
     17  OE1       71.3550   44.5370   13.1860 O.co2 118  GLU118     -0.2457
     18  OE2       69.6780   44.3690   11.7770 O.co2 118  GLU118     -0.2457
     19  N         67.7420   47.5110   15.8260 N.am  119  ALA119     -0.2033
     20  CA        68.2680   46.6040   16.8480 C.3   119  ALA119      0.1283
     21  C         67.1740   46.1670   17.8170 C.3   119  ALA119      0.2036
     22  O         67.1420   44.9410   18.0060 O.3   119  ALA119     -0.2185
     23  CB        69.4030   47.2780   17.6060 C.3   119  ALA119      0.0262
     24  N         66.9000   52.9700    6.8400 N.3   257  MET257     -0.1230
     25  CA        68.2080   52.5630    6.3550 C.3   257  MET257      0.1702
     26  C         68.1220   52.1000    4.9070 C.2   257  MET257      0.2593
     27  O         67.2630   52.5580    4.1520 O.2   257  MET257     -0.2718
     28  CB        68.7950   51.4590    7.2470 C.3   257  MET257      0.0401
     29  CG        67.8560   50.3080    7.5620 C.3   257  MET257      0.0596
     30  SD        66.4450   50.7940    8.5740 S.3   257  MET257     -0.1393
     31  CE        67.1620   50.8120   10.1980 C.3   257  MET257      0.0692
     32  N         69.0180   51.2010    4.5220 N.am  258  GLY258     -0.1942
     33  CA        69.0280   50.7090    3.1580 C.3   258  GLY258      0.2014
     34  C         68.2920   49.3950    2.9710 C.2   258  GLY258      0.2639
     35  O         67.5190   49.2470    2.0310 O.2   258  GLY258     -0.2714
     36  N         68.5260   48.4400    3.8650 N.am  259  ALA259     -0.1963
     37  CA        67.8740   47.1370    3.7620 C.3   259  ALA259      0.1728
     38  C         68.0010   46.3710    5.0720 C.2   259  ALA259      0.2616
     39  O         68.7830   46.7530    5.9440 O.2   259  ALA259     -0.2715
     40  CB        68.4900   46.3370    2.6110 C.3   259  ALA259      0.0334
     41  N         67.2420   45.2820    5.1970 N.am  260  MET260     -0.1963
     42  CA        67.2400   44.4720    6.4150 C.3   260  MET260      0.1736
     43  C         67.1350   42.9830    6.0920 C.2   260  MET260      0.2616
     44  O         66.2600   42.5590    5.3340 O.2   260  MET260     -0.2715
     45  CB        66.0770   44.9060    7.3060 C.3   260  MET260      0.0427
     46  CG        65.9730   44.1490    8.6150 C.3   260  MET260      0.0599
     47  SD        67.4470   44.3490    9.6400 S.3   260  MET260     -0.1393
     48  CE        67.5390   42.7080   10.3770 C.3   260  MET260      0.0692
     49  N         68.0140   42.1950    6.7050 N.am  261  GLU261     -0.1977
     50  CA        68.0960   40.7570    6.4540 C.3   261  GLU261      0.1602
     51  C         67.1080   39.8100    7.1510 C.2   261  GLU261      0.2287
     52  O         67.4620   38.6600    7.4240 O.2   261  GLU261     -0.2864
     53  CB        69.5260   40.2860    6.7560 C.3   261  GLU261      0.0415
     54  CG        69.9000   40.2150    8.2570 C.3   261  GLU261      0.1163
     55  CD        70.4100   41.5300    8.8490 C.2   261  GLU261      0.3649
     56  OE1       71.0490   41.4800    9.9250 O.co2 261  GLU261     -0.2457
     57  OE2       70.1790   42.6080    8.2650 O.co2 261  GLU261     -0.2457
     58  N         67.3540   50.6070   -3.0850 N.3   272  TYR272     -0.1241
     59  CA        68.2700   49.5060   -3.3460 C.3   272  TYR272      0.1605
     60  C         67.6280   48.3030   -4.0210 C.2   272  TYR272      0.2264
     61  O         68.1060   47.1740   -3.8990 O.2   272  TYR272     -0.2867
     62  CB        68.9790   49.1120   -2.0480 C.3   272  TYR272      0.0534
     63  CG        69.8450   50.2450   -1.5520 C.ar  272  TYR272     -0.0201
     64  CD1       70.8930   50.7300   -2.3350 C.ar  272  TYR272     -0.0009
     65  CD2       69.5720   50.8860   -0.3470 C.ar  272  TYR272     -0.0009
     66  CE1       71.6460   51.8280   -1.9350 C.ar  272  TYR272      0.0417
     67  CE2       70.3200   51.9890    0.0650 C.ar  272  TYR272      0.0417
     68  CZ        71.3540   52.4540   -0.7370 C.ar  272  TYR272      0.1957
     69  OH        72.0870   53.5530   -0.3500 O.3   272  TYR272     -0.2866
     70  N         75.2540   45.2930   -4.6120 N.3   290  ARG290     -0.1231
     71  CA        75.9240   45.2140   -3.3240 C.3   290  ARG290      0.1694
     72  C         74.9840   44.9620   -2.1540 C.2   290  ARG290      0.2591
     73  O         75.2530   44.1010   -1.3180 O.2   290  ARG290     -0.2718
     74  CB        76.7040   46.5000   -3.0300 C.3   290  ARG290      0.0321
     75  CG        77.3740   46.4390   -1.6660 C.3   290  ARG290      0.0489
     76  CD        77.9280   47.7620   -1.1720 C.3   290  ARG290      0.2205
     77  NE        78.5130   47.5510    0.1490 N.pl3 290  ARG290     -0.0865
     78  CZ        78.4100   48.3890    1.1750 C.cat 290  ARG290      0.5346
     79  NH1       77.7410   49.5280    1.0520 N.pl3 290  ARG290      0.1354
     80  NH2       78.9570   48.0650    2.3400 N.pl3 290  ARG290      0.1354
     81  N         73.8950   45.7230   -2.0890 N.am  291  VAL291     -0.1980
     82  CA        72.9460   45.5960   -0.9850 C.3   291  VAL291      0.1595
     83  C         72.1410   44.3010   -1.0430 C.2   291  VAL291      0.2287
     84  O         71.9160   43.6620   -0.0120 O.2   291  VAL291     -0.2864
     85  CB        72.0030   46.8180   -0.9310 C.3   291  VAL291      0.0276
     86  CG1       71.0540   46.7010    0.2530 C.3   291  VAL291      0.0022
     87  CG2       72.8290   48.0960   -0.7970 C.3   291  VAL291      0.0022
     88  N         74.6110   41.8050    0.1230 N.3   294  HIS294     -0.1226
     89  CA        74.8690   41.9900    1.5480 C.3   294  HIS294      0.1752
     90  C         73.8120   41.3230    2.4350 C.2   294  HIS294      0.2595
     91  O         74.1420   40.5050    3.3000 O.2   294  HIS294     -0.2718
     92  CB        74.9200   43.4840    1.8700 C.3   294  HIS294      0.0759
     93  CG        75.2440   43.7860    3.3010 C.ar  294  HIS294      0.0818
     94  ND1       76.5220   44.0740    3.7300 N.ar  294  HIS294     -0.2268
     95  CD2       74.4550   43.8430    4.3990 C.ar  294  HIS294      0.1154
     96  CE1       76.5070   44.2960    5.0320 C.ar  294  HIS294      0.1986
     97  NE2       75.2650   44.1620    5.4620 N.ar  294  HIS294     -0.2212
     98  N         72.5450   41.6690    2.2270 N.am  295  GLU295     -0.1979
     99  CA        71.4930   41.0930    3.0550 C.3   295  GLU295      0.1602
    100  C         71.4100   39.5850    2.8450 C.2   295  GLU295      0.2287
    101  O         71.1310   38.8410    3.7870 O.2   295  GLU295     -0.2864
    102  CB        70.1370   41.7480    2.7700 C.3   295  GLU295      0.0415
    103  CG        70.1090   43.2880    2.8750 C.3   295  GLU295      0.1163
    104  CD        70.8150   43.8530    4.1070 C.2   295  GLU295      0.3649
    105  OE1       70.8820   43.1690    5.1510 O.co2 295  GLU295     -0.2457
    106  OE2       71.2930   45.0080    4.0300 O.co2 295  GLU295     -0.2457
    107  N         73.9530   37.7710    4.8940 N.3   298  HIS298     -0.1241
    108  CA        73.6120   37.7220    6.3130 C.3   298  HIS298      0.1621
    109  C         72.8940   36.4190    6.6490 C.2   298  HIS298      0.2264
    110  O         72.8440   36.0190    7.8140 O.2   298  HIS298     -0.2867
    111  CB        72.6800   38.8700    6.6990 C.3   298  HIS298      0.0745
    112  CG        73.3850   40.0870    7.2060 C.ar  298  HIS298      0.0817
    113  ND1       74.3390   40.0370    8.2000 N.ar  298  HIS298     -0.2268
    114  CD2       73.2450   41.3930    6.8830 C.ar  298  HIS298      0.1154
    115  CE1       74.7570   41.2610    8.4660 C.ar  298  HIS298      0.1986
    116  NE2       74.1080   42.1010    7.6810 N.ar  298  HIS298     -0.2212
    117  N         78.6120   40.3630   12.7360 N.3   316  LYS316     -0.1231
    118  CA        77.8450   40.1320   11.5200 C.3   316  LYS316      0.1693
    119  C         78.0160   41.2500   10.4930 C.2   316  LYS316      0.2591
    120  O         78.1170   40.9750    9.3030 O.2   316  LYS316     -0.2718
    121  CB        76.3490   39.9080   11.8300 C.3   316  LYS316      0.0285
    122  CG        75.5260   41.1130   12.3000 C.3   316  LYS316      0.0035
    123  CD        74.0690   40.6580   12.5340 C.3   316  LYS316      0.0206
    124  CE        73.1430   41.7670   13.0250 C.3   316  LYS316      0.1093
    125  NZ        72.7070   42.7070   11.9430 N.3   316  LYS316     -0.1314
    126  N         78.0820   42.5040   10.9320 N.am  317  GLU317     -0.1979
    127  CA        78.2180   43.5940    9.9650 C.3   317  GLU317      0.1602
    128  C         79.6020   43.7140    9.3230 C.2   317  GLU317      0.2287
    129  O         79.7030   43.9060    8.1130 O.2   317  GLU317     -0.2864
    130  CB        77.8100   44.9290   10.5970 C.3   317  GLU317      0.0415
    131  CG        76.3380   45.0060   11.0230 C.3   317  GLU317      0.1163
    132  CD        75.3750   44.6170    9.9150 C.2   317  GLU317      0.3649
    133  OE1       75.7610   44.7090    8.7310 O.co2 317  GLU317     -0.2457
    134  OE2       74.2260   44.2320   10.2270 O.co2 317  GLU317     -0.2457
    135  N         70.9370   52.2620   18.0680 N.3   370  ASN370     -0.1240
    136  CA        70.7680   52.6770   16.6800 C.3   370  ASN370      0.1653
    137  C         71.8460   53.6680   16.2460 C.2   370  ASN370      0.2266
    138  O         71.9930   53.9480   15.0560 O.2   370  ASN370     -0.2867
    139  CB        69.3720   53.2610   16.4450 C.3   370  ASN370      0.1155
    140  CG        68.3020   52.1840   16.3450 C.2   370  ASN370      0.2627
    141  OD1       68.5300   51.1220   15.7610 O.2   370  ASN370     -0.2716
    142  ND2       67.1280   52.4550   16.9040 N.am  370  ASN370     -0.0877
    143  N         75.4330   51.7960   14.1270 N.3   373  TYR373     -0.1241
    144  CA        75.4910   51.1350   12.8240 C.3   373  TYR373      0.1605
    145  C         76.3380   52.1260   12.0350 C.2   373  TYR373      0.2264
    146  O         75.8870   52.8170   11.1180 O.2   373  TYR373     -0.2867
    147  CB        74.0850   50.9650   12.2650 C.3   373  TYR373      0.0534
    148  CG        73.3640   49.8510   12.9880 C.ar  373  TYR373     -0.0201
    149  CD1       72.8780   50.0320   14.2860 C.ar  373  TYR373     -0.0009
    150  CD2       73.2500   48.5870   12.4110 C.ar  373  TYR373     -0.0009
    151  CE1       72.2980   48.9700   14.9920 C.ar  373  TYR373      0.0417
    152  CE2       72.6780   47.5260   13.1020 C.ar  373  TYR373      0.0417
    153  CZ        72.2060   47.7230   14.3920 C.ar  373  TYR373      0.1957
    154  OH        71.6610   46.6660   15.0820 O.3   373  TYR373     -0.2866
    155  N         80.9960   48.8940   10.5850 N.3   378  TYR378     -0.1241
    156  CA        80.8760   48.3280    9.2430 C.3   378  TYR378      0.1605
    157  C         82.1670   48.2950    8.4380 C.2   378  TYR378      0.2264
    158  O         82.7430   47.2290    8.2150 O.2   378  TYR378     -0.2867
    159  CB        79.8340   49.1030    8.4340 C.3   378  TYR378      0.0534
    160  CG        78.4040   48.7220    8.7180 C.ar  378  TYR378     -0.0201
    161  CD1       77.8370   48.9270    9.9750 C.ar  378  TYR378     -0.0009
    162  CD2       77.6150   48.1450    7.7240 C.ar  378  TYR378     -0.0009
    163  CE1       76.5170   48.5650   10.2340 C.ar  378  TYR378      0.0417
    164  CE2       76.3050   47.7840    7.9720 C.ar  378  TYR378      0.0417
    165  CZ        75.7580   47.9940    9.2270 C.ar  378  TYR378      0.1957
    166  OH        74.4570   47.6280    9.4730 O.3   378  TYR378     -0.2866
    167  N         66.0000   58.4450   14.5390 N.3   818  GLN818     -0.1245
    168  CA        67.0850   57.8070   13.7990 C.3   818  GLN818      0.1566
    169  C         67.5940   58.6690   12.6520 C.2   818  GLN818      0.2260
    170  O         68.8030   58.8000   12.4600 O.2   818  GLN818     -0.2867
    171  CB        66.6440   56.4420   13.2670 C.3   818  GLN818      0.0367
    172  CG        66.4930   55.3900   14.3480 C.3   818  GLN818      0.0905
    173  CD        66.1240   54.0340   13.7850 C.2   818  GLN818      0.2608
    174  OE1       66.8920   53.4300   13.0340 O.2   818  GLN818     -0.2717
    175  NE2       64.9440   53.5500   14.1390 N.am  818  GLN818     -0.0878
    176  N         71.2760   60.7530   12.1930 N.3   822  ARG822     -0.1245
    177  CA        72.1790   60.6680   11.0510 C.3   822  ARG822      0.1563
    178  C         72.5270   62.0870   10.6150 C.2   822  ARG822      0.2260
    179  O         73.6750   62.3850   10.2760 O.2   822  ARG822     -0.2867
    180  CB        71.5200   59.9220    9.8850 C.3   822  ARG822      0.0307
    181  CG        71.1360   58.4850   10.2000 C.3   822  ARG822      0.0489
    182  CD        70.5650   57.7850    8.9710 C.3   822  ARG822      0.2205
    183  NE        71.6060   57.4160    8.0160 N.pl3 822  ARG822     -0.0865
    184  CZ        72.4750   56.4270    8.2060 C.cat 822  ARG822      0.5346
    185  NH1       72.4270   55.7020    9.3150 N.pl3 822  ARG822      0.1354
    186  NH2       73.3950   56.1630    7.2870 N.pl3 822  ARG822      0.1354
@<TRIPOS>BOND
     1    70    71    1
     2    60    61    2
     3    60    59    1
     4    59    58    1
     5    59    62    1
     6    71    74    1
     7    71    72    1
     8    74    75    1
     9    64    66   ar
    10    64    63   ar
    11    72    81   am
    12    72    73    2
    13    81    82    1
    14    62    63    1
    15    66    68   ar
    16    75    76    1
    17    63    65   ar
    18    76    77    1
    19    83    82    1
    20    83    84    2
    21    82    85    1
    22    85    87    1
    23    85    86    1
    24    68    69    1
    25    68    67   ar
    26    65    67   ar
    27    88    89    1
    28    77    78    2
    29    79    78    1
    30    78    80    1
    31    89    92    1
    32    89    90    1
    33    92    93    1
    34    35    34    2
    35    98    90   am
    36    98    99    1
    37    90    91    2
    38    40    37    1
    39   102   103    1
    40   102    99    1
    41   100    99    1
    42   100   101    2
    43   103   104    1
    44    34    33    1
    45    34    36   am
    46    33    32    1
    47    93    94   ar
    48    93    95   ar
    49    94    96   ar
    50    37    36    1
    51    37    38    1
    52   106   104   ar
    53   104   105   ar
    54    27    26    2
    55    95    97   ar
    56    32    26   am
    57   107   108    1
    58    26    25    1
    59    96    97   ar
    60    38    41   am
    61    38    39    2
    62    41    42    1
    63    44    43    2
    64    43    42    1
    65    43    49   am
    66   108   109    1
    67   108   111    1
    68    25    24    1
    69    25    28    1
    70    42    45    1
    71    50    49    1
    72    50    53    1
    73    50    51    1
    74   109   110    2
    75   111   112    1
    76    53    54    1
    77   114   112   ar
    78   114   116   ar
    79    51    52    2
    80   112   113   ar
    81    28    29    1
    82   186   184    1
    83    45    46    1
    84    29    30    1
    85   116   115   ar
    86   162   164   ar
    87   162   160   ar
    88   164   165   ar
    89   183   184    2
    90   183   182    1
    91   129   128    2
    92   113   115   ar
    93   184   185    1
    94   158   157    2
    95    54    55    1
    96    57    55   ar
    97   159   160    1
    98   159   156    1
    99   157   156    1
   100    30    31    1
   101    46    47    1
   102   160   161   ar
   103   133   132   ar
   104    55    56   ar
   105   182   181    1
   106   165   166    1
   107   165   163   ar
   108   156   155    1
   109   120   119    2
   110     8     7    2
   111   128   127    1
   112    47    48    1
   113   180   181    1
   114   180   177    1
   115   132   134   ar
   116   132   131    1
   117   127   130    1
   118   127   126    1
   119   161   163   ar
   120   179   178    2
   121     7     6    1
   122     7     9   am
   123   119   126   am
   124   119   118    1
   125   130   131    1
   126   178   177    1
   127     5     6    1
   128     5     2    1
   129   177   176    1
   130     1     2    1
   131   146   145    2
   132     2     3    1
   133   118   121    1
   134   118   117    1
   135    18    16   ar
   136   121   122    1
   137   125   124    1
   138   145   144    1
   139   147   144    1
   140   147   148    1
   141   122   123    1
   142   150   148   ar
   143   150   152   ar
   144   170   169    2
   145   123   124    1
   146   169   168    1
   147     3     4    2
   148   144   143    1
   149    16    17   ar
   150    16    15    1
   151   148   149   ar
   152   174   173    2
   153   152   153   ar
   154   171   168    1
   155   171   172    1
   156    14    15    1
   157    14    11    1
   158   173   175   am
   159   173   172    1
   160   168   167    1
   161    13    12    2
   162    10    11    1
   163   149   151   ar
   164   153   151   ar
   165   153   154    1
   166    11    12    1
   167    12    19   am
   168   138   137    2
   169   141   140    2
   170    19    20    1
   171   137   136    1
   172   140   139    1
   173   140   142   am
   174   139   136    1
   175   136   135    1
   176    20    23    1
   177    20    21    1
   178    21    22    1
