@<TRIPOS>MOLECULE
tmp/2dqnA00.pdb
 106 102 0 0 0
SMALL
GASTEIGER

@<TRIPOS>ATOM
      1  N         29.0510   50.8770   39.3030 N.3   128  ALA128     -0.1231
      2  CA        29.0000   49.6850   40.1510 C.3   128  ALA128      0.1694
      3  C         30.2070   48.7290   40.0880 C.2   128  ALA128      0.2592
      4  O         30.1100   47.5540   40.4920 O.2   128  ALA128     -0.2718
      5  CB        27.7130   48.9370   39.8810 C.3   128  ALA128      0.0304
      6  N         31.3410   49.2240   39.6020 N.am  129  MET129     -0.1965
      7  CA        32.5190   48.3780   39.5240 C.3   129  MET129      0.1736
      8  C         33.5310   48.7540   40.5870 C.2   129  MET129      0.2617
      9  O         34.2200   49.7690   40.4680 O.2   129  MET129     -0.2715
     10  CB        33.1750   48.5060   38.1590 C.3   129  MET129      0.0427
     11  CG        32.2550   48.1530   37.0170 C.3   129  MET129      0.0599
     12  SD        32.9310   48.7640   35.4750 S.3   129  MET129     -0.1393
     13  CE        32.1770   47.6860   34.3190 C.3   129  MET129      0.0692
     14  N         33.6140   47.9240   41.6190 N.am  130  GLY130     -0.1940
     15  CA        34.5610   48.1410   42.6910 C.3   130  GLY130      0.2014
     16  C         34.1730   47.4030   43.9520 C.2   130  GLY130      0.2639
     17  O         33.0930   46.8020   44.0260 O.2   130  GLY130     -0.2714
     18  N         35.0560   47.4290   44.9470 N.am  131  GLY131     -0.1954
     19  CA        34.7550   46.7760   46.2120 C.3   131  GLY131      0.1869
     20  C         34.9500   47.7190   47.3960 C.2   131  GLY131      0.2309
     21  O         34.9490   47.2670   48.5380 O.2   131  GLY131     -0.2863
     22  N         31.9370   47.9820   48.3920 N.3   153  GLY153     -0.1210
     23  CA        31.5340   48.4940   47.0850 C.3   153  GLY153      0.1956
     24  C         30.7940   47.4030   46.3670 C.2   153  GLY153      0.2612
     25  O         30.8810   46.2470   46.8080 O.2   153  GLY153     -0.2717
     26  N         30.0460   47.7320   45.3160 N.am  154  SER154     -0.1952
     27  CA        29.9030   49.0990   44.8740 C.3   154  SER154      0.1924
     28  C         28.8430   49.9330   45.6650 C.2   154  SER154      0.2314
     29  O         28.8570   51.1810   45.6390 O.2   154  SER154     -0.2863
     30  CB        29.5640   49.2010   43.3500 C.3   154  SER154      0.2116
     31  OG        28.3130   48.5680   43.0950 O.3   154  SER154     -0.2180
     32  N         25.8220   42.8860   41.6700 N.3   175  THR175     -0.1203
     33  CA        26.1810   42.1610   40.4640 C.3   175  THR175      0.1994
     34  C         27.0080   40.9340   40.7870 C.2   175  THR175      0.2618
     35  O         26.9000   39.8990   40.1240 O.2   175  THR175     -0.2717
     36  CB        26.9440   43.0740   39.5160 C.3   175  THR175      0.1784
     37  OG1       26.0450   44.0890   39.0470 O.3   175  THR175     -0.2211
     38  CG2       27.4820   42.2990   38.3280 C.3   175  THR175      0.0376
     39  N         27.8130   41.0630   41.8310 N.am  176  GLY176     -0.1942
     40  CA        28.6580   39.9790   42.2760 C.3   176  GLY176      0.2014
     41  C         28.9370   40.1480   43.7620 C.2   176  GLY176      0.2639
     42  O         29.8870   39.5730   44.2840 O.2   176  GLY176     -0.2714
     43  N         28.0960   40.9440   44.4320 N.am  177  GLY177     -0.1939
     44  CA        28.2520   41.2270   45.8550 C.3   177  GLY177      0.2014
     45  C         28.1450   42.6880   46.2560 C.2   177  GLY177      0.2639
     46  O         28.3060   43.0330   47.4090 O.2   177  GLY177     -0.2714
     47  N         27.8400   43.5560   45.3000 N.am  178  SER178     -0.1949
     48  CA        27.7090   45.0130   45.5840 C.3   178  SER178      0.1924
     49  C         26.6390   45.4900   46.5800 C.2   178  SER178      0.2314
     50  O         26.4840   46.6850   46.8380 O.2   178  SER178     -0.2863
     51  CB        27.5240   45.7400   44.2790 C.3   178  SER178      0.2116
     52  OG        28.7590   46.0590   43.6540 O.3   178  SER178     -0.2180
     53  N         25.1610   46.8500   34.1330 N.3   206  PHE206     -0.1241
     54  CA        26.5750   46.5820   34.0840 C.3   206  PHE206      0.1605
     55  C         26.6110   45.1800   33.4230 C.2   206  PHE206      0.2264
     56  O         27.2090   44.9840   32.3730 O.2   206  PHE206     -0.2867
     57  CB        27.1320   46.6310   35.5250 C.3   206  PHE206      0.0534
     58  CG        28.4790   45.9620   35.7010 C.ar  206  PHE206     -0.0203
     59  CD1       29.1820   45.4500   34.6080 C.ar  206  PHE206     -0.0042
     60  CD2       29.0090   45.7750   36.9740 C.ar  206  PHE206     -0.0042
     61  CE1       30.3460   44.7210   34.7880 C.ar  206  PHE206     -0.0003
     62  CE2       30.1750   45.0480   37.1620 C.ar  206  PHE206     -0.0003
     63  CZ        30.8500   44.5330   36.0600 C.ar  206  PHE206     -0.0000
     64  N         33.3160   35.0840   37.0150 N.3   309  TYR309     -0.1227
     65  CA        32.5000   36.2590   37.2260 C.3   309  TYR309      0.1736
     66  C         33.0820   37.4750   36.5150 C.2   309  TYR309      0.2595
     67  O         32.3620   38.2210   35.8510 O.2   309  TYR309     -0.2718
     68  CB        32.3820   36.6080   38.7090 C.3   309  TYR309      0.0548
     69  CG        31.8440   38.0050   38.9130 C.ar  309  TYR309     -0.0200
     70  CD1       30.4790   38.2550   38.9050 C.ar  309  TYR309     -0.0009
     71  CD2       32.7080   39.0900   39.0320 C.ar  309  TYR309     -0.0009
     72  CE1       29.9810   39.5590   39.0060 C.ar  309  TYR309      0.0417
     73  CE2       32.2270   40.3910   39.1340 C.ar  309  TYR309      0.0417
     74  CZ        30.8650   40.6180   39.1170 C.ar  309  TYR309      0.1957
     75  OH        30.3990   41.9120   39.1800 O.3   309  TYR309     -0.2866
     76  N         34.3790   37.7050   36.6590 N.am  310  TYR310     -0.1976
     77  CA        34.9230   38.8850   36.0190 C.3   310  TYR310      0.1639
     78  C         34.9020   38.7940   34.5030 C.2   310  TYR310      0.2290
     79  O         34.5950   39.7810   33.8310 O.2   310  TYR310     -0.2864
     80  CB        36.3150   39.2200   36.5670 C.3   310  TYR310      0.0560
     81  CG        36.2230   39.9870   37.8700 C.ar  310  TYR310     -0.0198
     82  CD1       36.0140   39.3230   39.0840 C.ar  310  TYR310     -0.0009
     83  CD2       36.2610   41.3930   37.8830 C.ar  310  TYR310     -0.0009
     84  CE1       35.8400   40.0350   40.2730 C.ar  310  TYR310      0.0417
     85  CE2       36.0830   42.1220   39.0730 C.ar  310  TYR310      0.0417
     86  CZ        35.8700   41.4340   40.2550 C.ar  310  TYR310      0.1957
     87  OH        35.6480   42.1320   41.4150 O.3   310  TYR310     -0.2866
     88  N         37.5750   46.9770   32.9130 N.3   358  ARG358     -0.1245
     89  CA        36.5390   45.9890   32.6400 C.3   358  ARG358      0.1563
     90  C         36.2110   45.9200   31.1500 C.2   358  ARG358      0.2260
     91  O         36.1870   44.8340   30.5690 O.2   358  ARG358     -0.2867
     92  CB        35.2580   46.2990   33.4290 C.3   358  ARG358      0.0307
     93  CG        35.4290   46.5520   34.9380 C.3   358  ARG358      0.0489
     94  CD        36.1640   45.4220   35.6440 C.3   358  ARG358      0.2205
     95  NE        36.2420   45.6360   37.0900 N.pl3 358  ARG358     -0.0865
     96  CZ        35.2370   45.4180   37.9410 C.cat 358  ARG358      0.5346
     97  NH1       34.0630   44.9710   37.5060 N.pl3 358  ARG358      0.1354
     98  NH2       35.3940   45.6550   39.2350 N.pl3 358  ARG358      0.1354
     99  N         35.6950   39.2820   46.5600 N.3   425  ASP425     -0.1239
    100  CA        34.3890   38.8020   46.0910 C.3   425  ASP425      0.1674
    101  C         34.2680   37.2910   46.1100 C.2   425  ASP425      0.2266
    102  O         33.3530   36.7340   45.4950 O.2   425  ASP425     -0.2867
    103  CB        34.0910   39.2700   44.6680 C.3   425  ASP425      0.1410
    104  CG        34.0640   40.7880   44.5290 C.2   425  ASP425      0.3668
    105  OD1       33.8880   41.5000   45.5440 O.co2 425  ASP425     -0.2456
    106  OD2       34.2070   41.2430   43.3820 O.co2 425  ASP425     -0.2456
@<TRIPOS>BOND
     1    91    90    2
     2    90    89    1
     3    56    55    2
     4    89    88    1
     5    89    92    1
     6    55    54    1
     7    92    93    1
     8    79    78    2
     9    54    53    1
    10    54    57    1
    11    13    12    1
    12    78    77    1
    13    59    61   ar
    14    59    58   ar
    15    61    63   ar
    16    93    94    1
    17    12    11    1
    18    57    58    1
    19    94    95    1
    20    58    60   ar
    21    67    66    2
    22    77    80    1
    23    77    76    1
    24    63    62   ar
    25    66    76   am
    26    66    65    1
    27    80    81    1
    28    60    62   ar
    29    64    65    1
    30    11    10    1
    31    95    96    2
    32    65    68    1
    33    97    96    1
    34    81    83   ar
    35    81    82   ar
    36    83    85   ar
    37    96    98    1
    38    10     7    1
    39    38    36    1
    40    68    69    1
    41    70    69   ar
    42    70    72   ar
    43    69    71   ar
    44    72    74   ar
    45    71    73   ar
    46    37    36    1
    47    85    86   ar
    48    82    84   ar
    49    74    73   ar
    50    74    75    1
    51     1     2    1
    52    36    33    1
    53     7     6    1
    54     7     8    1
    55     6     3   am
    56     5     2    1
    57     3     2    1
    58     3     4    2
    59    35    34    2
    60    86    84   ar
    61    86    87    1
    62    33    34    1
    63    33    32    1
    64     9     8    2
    65     8    14   am
    66    34    39   am
    67    14    15    1
    68    39    40    1
    69    40    41    1
    70    15    16    1
    71    31    30    1
    72    30    27    1
    73   106   104   ar
    74    52    51    1
    75    41    42    2
    76    41    43   am
    77    16    17    2
    78    16    18   am
    79    51    48    1
    80    43    44    1
    81   104   103    1
    82   104   105   ar
    83   103   100    1
    84    27    26    1
    85    27    28    1
    86    18    19    1
    87    47    48    1
    88    47    45   am
    89    26    24   am
    90   102   101    2
    91    48    49    1
    92    29    28    2
    93    44    45    1
    94   100   101    1
    95   100    99    1
    96    19    20    1
    97    45    46    2
    98    24    25    2
    99    24    23    1
   100    49    50    2
   101    23    22    1
   102    20    21    2
