@<TRIPOS>MOLECULE
tmp/2dquB00.pdb
 121 119 0 0 0
SMALL
GASTEIGER

@<TRIPOS>ATOM
      1  N          4.6890    9.3520   -6.8040 N.3    33  ALA33      -0.1245
      2  CA         4.8360    8.0210   -6.2190 C.3    33  ALA33       0.1562
      3  C          5.7160    8.2990   -5.0050 C.2    33  ALA33       0.2260
      4  O          6.4120    9.3050   -4.9780 O.2    33  ALA33      -0.2867
      5  CB         5.5680    7.0940   -7.1840 C.3    33  ALA33       0.0290
      6  N         15.3950   -1.2970   -0.7900 N.3    47  TRP47      -0.1241
      7  CA        14.1000   -0.7080   -1.1170 C.3    47  TRP47       0.1605
      8  C         13.0410   -1.5850   -0.4290 C.2    47  TRP47       0.2264
      9  O         13.1420   -2.8100   -0.4520 O.2    47  TRP47      -0.2867
     10  CB        13.9170   -0.7060   -2.6390 C.3    47  TRP47       0.0550
     11  CG        12.4990   -0.4990   -3.0980 C.ar   47  TRP47       0.0003
     12  CD1       11.8720    0.6920   -3.3430 C.ar   47  TRP47       0.0946
     13  CD2       11.5630   -1.5250   -3.4460 C.ar   47  TRP47       0.0152
     14  NE1       10.5950    0.4670   -3.8360 N.ar   47  TRP47      -0.2442
     15  CE2       10.3850   -0.8850   -3.9090 C.ar   47  TRP47       0.0810
     16  CE3       11.6070   -2.9270   -3.4180 C.ar   47  TRP47       0.0012
     17  CZ2        9.2720   -1.5990   -4.3420 C.ar   47  TRP47       0.0191
     18  CZ3       10.4890   -3.6400   -3.8520 C.ar   47  TRP47       0.0001
     19  CH2        9.3420   -2.9740   -4.3080 C.ar   47  TRP47       0.0015
     20  N          7.0370    0.7740   -2.8710 N.3    50  SER50      -0.1217
     21  CA         6.7600    1.9630   -3.6650 C.3    50  SER50       0.1889
     22  C          5.2400    1.9770   -3.8520 C.2    50  SER50       0.2288
     23  O          4.6310    0.9340   -4.0540 O.2    50  SER50      -0.2866
     24  CB         7.4320    1.9170   -5.0500 C.3    50  SER50       0.2089
     25  OG         8.8270    2.2050   -4.9880 O.3    50  SER50      -0.2183
     26  N          2.5600    4.1100   -6.1580 N.3    52  SER52      -0.1217
     27  CA         2.4870    5.1000   -7.2290 C.3    52  SER52       0.1889
     28  C          1.4400    6.1810   -6.9600 C.2    52  SER52       0.2288
     29  O          0.6520    6.0790   -6.0110 O.2    52  SER52      -0.2866
     30  CB         2.2120    4.4090   -8.5720 C.3    52  SER52       0.2089
     31  OG         0.8460    4.0600   -8.7200 O.3    52  SER52      -0.2183
     32  N         -0.8440    2.1970   -7.2320 N.3    56  SER56      -0.1217
     33  CA        -0.3070    0.8610   -7.4820 C.3    56  SER56       0.1889
     34  C          0.7640    0.6210   -6.4260 C.2    56  SER56       0.2288
     35  O          1.5940    1.4970   -6.1880 O.2    56  SER56      -0.2866
     36  CB         0.3140    0.7600   -8.8760 C.3    56  SER56       0.2089
     37  OG        -0.6880    0.6690   -9.8730 O.3    56  SER56      -0.2183
     38  N          3.9640   -1.7980   -4.7710 N.3    58  TYR58      -0.1241
     39  CA         4.9970   -2.7880   -5.0400 C.3    58  TYR58       0.1605
     40  C          5.7960   -2.9880   -3.7520 C.2    58  TYR58       0.2264
     41  O          6.3120   -2.0260   -3.1890 O.2    58  TYR58      -0.2867
     42  CB         5.9250   -2.2990   -6.1720 C.3    58  TYR58       0.0534
     43  CG         5.1830   -1.9660   -7.4500 C.ar   58  TYR58      -0.0201
     44  CD1        4.6470   -0.6920   -7.6650 C.ar   58  TYR58      -0.0009
     45  CD2        4.9580   -2.9420   -8.4160 C.ar   58  TYR58      -0.0009
     46  CE1        3.8940   -0.4040   -8.8240 C.ar   58  TYR58       0.0417
     47  CE2        4.2130   -2.6710   -9.5620 C.ar   58  TYR58       0.0417
     48  CZ         3.6840   -1.4070   -9.7620 C.ar   58  TYR58       0.1957
     49  OH         2.9310   -1.1720  -10.8940 O.3    58  TYR58      -0.2866
     50  N          9.4380    9.7620   -5.2680 N.3    98  VAL98      -0.1245
     51  CA         9.8760    9.2080   -6.5390 C.3    98  VAL98       0.1561
     52  C          9.3290   10.1810   -7.5730 C.2    98  VAL98       0.2260
     53  O          8.1420   10.4830   -7.5670 O.2    98  VAL98      -0.2867
     54  CB         9.2750    7.8200   -6.7910 C.3    98  VAL98       0.0252
     55  CG1        9.8020    7.2700   -8.1210 C.3    98  VAL98       0.0019
     56  CG2        9.6230    6.8840   -5.6180 C.3    98  VAL98       0.0019
     57  N          7.7820   10.3860  -10.1560 N.3   100  HIS100     -0.1241
     58  CA         6.9580    9.6080  -11.0570 C.3   100  HIS100      0.1621
     59  C          5.4600    9.7530  -10.8200 C.2   100  HIS100      0.2264
     60  O          5.0100    9.9450   -9.7000 O.2   100  HIS100     -0.2867
     61  CB         7.3570    8.1400  -10.9080 C.3   100  HIS100      0.0745
     62  CG         6.5610    7.1980  -11.7550 C.ar  100  HIS100      0.0817
     63  ND1        5.4000    6.5990  -11.3140 N.ar  100  HIS100     -0.2268
     64  CD2        6.7780    6.7300  -13.0080 C.ar  100  HIS100      0.1154
     65  CE1        4.9390    5.7970  -12.2570 C.ar  100  HIS100      0.1986
     66  NE2        5.7570    5.8590  -13.2950 N.ar  100  HIS100     -0.2212
     67  N          1.7460    7.9550  -12.5210 N.3   102  ASP102     -0.1225
     68  CA         1.3320    6.8080  -13.3170 C.3   102  ASP102      0.1805
     69  C          1.5070    7.0560  -14.8080 C.2   102  ASP102      0.2598
     70  O          1.0020    8.0410  -15.3260 O.2   102  ASP102     -0.2718
     71  CB        -0.1310    6.4850  -13.0220 C.3   102  ASP102      0.1424
     72  CG        -0.3080    5.6920  -11.7390 C.2   102  ASP102      0.3668
     73  OD1        0.5930    5.7190  -10.8650 O.co2 102  ASP102     -0.2456
     74  OD2       -1.3600    5.0460  -11.6150 O.co2 102  ASP102     -0.2456
     75  N          2.2160    6.1570  -15.4840 N.am  103  GLY103     -0.1942
     76  CA         2.4190    6.2980  -16.9180 C.3   103  GLY103      0.2014
     77  C          3.6140    7.1210  -17.3500 C.2   103  GLY103      0.2639
     78  O          3.8860    7.2270  -18.5510 O.2   103  GLY103     -0.2714
     79  N          4.3340    7.7020  -16.3920 N.am  104  SER104     -0.1949
     80  CA         5.5100    8.5010  -16.7170 C.3   104  SER104      0.1924
     81  C          6.6510    7.5810  -17.0850 C.2   104  SER104      0.2314
     82  O          6.7480    6.4700  -16.5630 O.2   104  SER104     -0.2863
     83  CB         5.9460    9.3730  -15.5370 C.3   104  SER104      0.2116
     84  OG         7.0870   10.1350  -15.9050 O.3   104  SER104     -0.2180
     85  N         11.4890    7.8500  -13.4930 N.3   107  TRP107     -0.1227
     86  CA        11.2600    7.6290  -12.0710 C.3   107  TRP107      0.1737
     87  C         12.6130    7.5130  -11.3980 C.2   107  TRP107      0.2595
     88  O         13.5250    6.8780  -11.9260 O.2   107  TRP107     -0.2718
     89  CB        10.3770    6.3930  -11.7820 C.3   107  TRP107      0.0564
     90  CG        10.8260    5.0580  -12.3580 C.ar  107  TRP107      0.0003
     91  CD1       11.7310    4.1900  -11.8310 C.ar  107  TRP107      0.0946
     92  CD2       10.3240    4.4430  -13.5480 C.ar  107  TRP107      0.0152
     93  NE1       11.8220    3.0550  -12.6180 N.ar  107  TRP107     -0.2442
     94  CE2       10.9620    3.1920  -13.6790 C.ar  107  TRP107      0.0810
     95  CE3        9.3860    4.8290  -14.5190 C.ar  107  TRP107      0.0012
     96  CZ2       10.6890    2.3230  -14.7410 C.ar  107  TRP107      0.0191
     97  CZ3        9.1190    3.9680  -15.5700 C.ar  107  TRP107      0.0001
     98  CH2        9.7670    2.7280  -15.6720 C.ar  107  TRP107      0.0015
     99  N         12.7410    8.1840  -10.2610 N.am  108  TYR108     -0.1962
    100  CA        13.9790    8.1700   -9.4860 C.3   108  TYR108      0.1771
    101  C         13.6940    8.8860   -8.1720 C.2   108  TYR108      0.2619
    102  O         12.7700    9.7030   -8.1030 O.2   108  TYR108     -0.2715
    103  CB        15.0990    8.8660  -10.2730 C.3   108  TYR108      0.0574
    104  CG        14.7290   10.2180  -10.8630 C.ar  108  TYR108     -0.0198
    105  CD1       14.7840   11.3790  -10.0900 C.ar  108  TYR108     -0.0009
    106  CD2       14.3560   10.3400  -12.2090 C.ar  108  TYR108     -0.0009
    107  CE1       14.4860   12.6330  -10.6350 C.ar  108  TYR108      0.0417
    108  CE2       14.0490   11.6080  -12.7680 C.ar  108  TYR108      0.0417
    109  CZ        14.1250   12.7410  -11.9710 C.ar  108  TYR108      0.1957
    110  OH        13.8890   13.9890  -12.5030 O.3   108  TYR108     -0.2866
    111  N         14.4660    8.5660   -7.1340 N.am  109  PHE109     -0.1974
    112  CA        14.2890    9.1660   -5.8080 C.3   109  PHE109      0.1639
    113  C         14.9160   10.5590   -5.8070 C.2   109  PHE109      0.2290
    114  O         16.1380   10.6670   -5.7680 O.2   109  PHE109     -0.2864
    115  CB        15.0030    8.3300   -4.7300 C.3   109  PHE109      0.0560
    116  CG        14.5850    6.8810   -4.6790 C.ar  109  PHE109     -0.0200
    117  CD1       13.2390    6.5250   -4.6440 C.ar  109  PHE109     -0.0042
    118  CD2       15.5430    5.8750   -4.6200 C.ar  109  PHE109     -0.0042
    119  CE1       12.8580    5.1820   -4.5490 C.ar  109  PHE109     -0.0003
    120  CE2       15.1680    4.5270   -4.5250 C.ar  109  PHE109     -0.0003
    121  CZ        13.8330    4.1860   -4.4880 C.ar  109  PHE109     -0.0000
@<TRIPOS>BOND
     1    78    77    2
     2    77    76    1
     3    77    79   am
     4    81    80    1
     5    81    82    2
     6    76    75    1
     7    80    79    1
     8    80    83    1
     9    84    83    1
    10    98    97   ar
    11    98    96   ar
    12    97    95   ar
    13    75    69   am
    14    70    69    2
    15    69    68    1
    16    96    94   ar
    17    95    92   ar
    18    94    92   ar
    19    94    93   ar
    20    92    90   ar
    21    85    86    1
    22    68    71    1
    23    68    67    1
    24    66    64   ar
    25    66    65   ar
    26    71    72    1
    27    64    62   ar
    28   108   106   ar
    29   108   109   ar
    30    93    91   ar
    31   110   109    1
    32    90    91   ar
    33    90    89    1
    34    65    63   ar
    35   106   104   ar
    36    86    89    1
    37    86    87    1
    38   109   107   ar
    39    88    87    2
    40    62    63   ar
    41    62    61    1
    42    72    74   ar
    43    72    73   ar
    44    87    99   am
    45    58    61    1
    46    58    59    1
    47    58    57    1
    48    49    48    1
    49   104   103    1
    50   104   105   ar
    51    59    60    2
    52   107   105   ar
    53   103   100    1
    54    99   100    1
    55    37    36    1
    56    48    47   ar
    57    48    46   ar
    58    47    45   ar
    59   100   101    1
    60    36    33    1
    61    46    44   ar
    62    31    30    1
    63    30    27    1
    64    45    43   ar
    65   101   102    2
    66   101   111   am
    67    55    54    1
    68    44    43   ar
    69    52    53    2
    70    52    51    1
    71    33    32    1
    72    33    34    1
    73    43    42    1
    74    27    28    1
    75    27    26    1
    76     5     2    1
    77   111   112    1
    78    28    29    2
    79     1     2    1
    80    54    51    1
    81    54    56    1
    82    51    50    1
    83    34    35    2
    84     2     3    1
    85    42    39    1
    86   112   113    1
    87   112   115    1
    88   113   114    2
    89    24    25    1
    90    24    21    1
    91    39    38    1
    92    39    40    1
    93     3     4    2
    94   115   116    1
    95   116   117   ar
    96   116   118   ar
    97   117   119   ar
    98   118   120   ar
    99   119   121   ar
   100   120   121   ar
   101    17    19   ar
   102    17    15   ar
   103    19    18   ar
   104    23    22    2
   105    15    14   ar
   106    15    13   ar
   107    22    21    1
   108    18    16   ar
   109    14    12   ar
   110    40    41    2
   111    21    20    1
   112    13    16   ar
   113    13    11   ar
   114    12    11   ar
   115    11    10    1
   116    10     7    1
   117     7     6    1
   118     7     8    1
   119     9     8    2
