@<TRIPOS>MOLECULE
tmp/2dqyC02.pdb
 99 100 0 0 0
SMALL
GASTEIGER

@<TRIPOS>ATOM
      1  N         20.3130    5.4130   36.3220 N.3    31  LEU31      -0.1231
      2  CA        21.1270    5.9550   37.3950 C.3    31  LEU31       0.1693
      3  C         20.3320    6.7790   38.3820 C.2    31  LEU31       0.2592
      4  O         19.7490    7.8010   38.0210 O.2    31  LEU31      -0.2718
      5  CB        22.2370    6.8330   36.8050 C.3    31  LEU31       0.0284
      6  CG        23.1010    6.1570   35.7450 C.3    31  LEU31       0.0019
      7  CD1       24.0630    7.1510   35.1490 C.3    31  LEU31       0.0001
      8  CD2       23.8290    4.9860   36.3650 C.3    31  LEU31       0.0001
      9  N         20.3010    6.3350   39.6290 N.am   32  GLY32      -0.1957
     10  CA        19.6150    7.1160   40.6320 C.3    32  GLY32       0.1869
     11  C         18.1710    6.7940   40.9280 C.2    32  GLY32       0.2309
     12  O         17.4140    7.6640   41.3460 O.2    32  GLY32      -0.2863
     13  N         15.5120    5.9130   43.2100 N.3    34  PRO34      -0.2116
     14  CA        15.3660    5.9300   44.6770 C.3    34  PRO34       0.1372
     15  C         14.6280    4.6800   45.1650 C.2    34  PRO34       0.2244
     16  O         13.5930    4.3350   44.6120 O.2    34  PRO34      -0.2868
     17  CB        14.5440    7.1900   44.9180 C.3    34  PRO34       0.0268
     18  CG        13.6040    7.1660   43.7440 C.3    34  PRO34       0.0207
     19  CD        14.5560    6.8430   42.5860 C.3    34  PRO34       0.0892
     20  N          7.2550   11.0670   34.3320 N.3    57  VAL57      -0.1231
     21  CA         8.4340   10.2540   34.0480 C.3    57  VAL57       0.1692
     22  C          9.6490   10.7960   34.7900 C.2    57  VAL57       0.2592
     23  O         10.0080   11.9550   34.6280 O.2    57  VAL57      -0.2718
     24  CB         8.7380   10.2230   32.5330 C.3    57  VAL57       0.0266
     25  CG1       10.1040    9.5870   32.2800 C.3    57  VAL57       0.0020
     26  CG2        7.6560    9.4340   31.8100 C.3    57  VAL57       0.0020
     27  N         10.2730    9.9610   35.6100 N.am   58  LYS58      -0.1966
     28  CA        11.4500   10.3710   36.3640 C.3    58  LYS58       0.1728
     29  C         12.7260   10.0130   35.5870 C.2    58  LYS58       0.2616
     30  O         12.8960    8.8770   35.1350 O.2    58  LYS58      -0.2715
     31  CB        11.4360    9.6870   37.7380 C.3    58  LYS58       0.0311
     32  CG        12.6510    9.9520   38.6100 C.3    58  LYS58       0.0038
     33  CD        12.4890    9.3610   40.0000 C.3    58  LYS58       0.0206
     34  CE        11.6060   10.2270   40.8730 C.3    58  LYS58       0.1093
     35  NZ        12.2130   11.5730   41.0800 N.3    58  LYS58      -0.1314
     36  N         13.6190   10.9830   35.4300 N.am   59  ASN59      -0.1958
     37  CA        14.8540   10.7560   34.6930 C.3    59  ASN59       0.1819
     38  C         15.9730   10.1500   35.5080 C.2    59  ASN59       0.2621
     39  O         16.6640   10.8520   36.2280 O.2    59  ASN59      -0.2715
     40  CB        15.3550   12.0620   34.0680 C.3    59  ASN59       0.1195
     41  CG        14.5110   12.5070   32.8960 C.2    59  ASN59       0.2630
     42  OD1       13.4720   11.9160   32.6140 O.2    59  ASN59      -0.2716
     43  ND2       14.9290   13.5590   32.2080 N.am   59  ASN59      -0.0877
     44  N         16.1630    8.8430   35.3860 N.am   60  ALA60      -0.1963
     45  CA        17.2400    8.1810   36.1140 C.3    60  ALA60       0.1728
     46  C         18.4740    8.2480   35.2270 C.2    60  ALA60       0.2617
     47  O         19.0020    7.2170   34.8030 O.2    60  ALA60      -0.2715
     48  CB        16.8720    6.7370   36.4020 C.3    60  ALA60       0.0334
     49  N         18.9310    9.4670   34.9490 N.am   61  THR61      -0.1937
     50  CA        20.0810    9.6560   34.0740 C.3    61  THR61       0.2028
     51  C         21.2370   10.4420   34.6680 C.2    61  THR61       0.2643
     52  O         22.0920   10.9500   33.9290 O.2    61  THR61      -0.2714
     53  CB        19.6560   10.3500   32.7700 C.3    61  THR61       0.1808
     54  OG1       18.6470   11.3270   33.0570 O.3    61  THR61      -0.2208
     55  CG2       19.1160    9.3370   31.7770 C.3    61  THR61       0.0379
     56  N         21.2670   10.5440   35.9950 N.am   62  SER62      -0.1935
     57  CA        22.3400   11.2680   36.6790 C.3    62  SER62       0.2055
     58  C         22.7890   10.5210   37.9100 C.2    62  SER62       0.2643
     59  O         21.9760   10.1730   38.7670 O.2    62  SER62      -0.2714
     60  CB        21.8750   12.6560   37.1000 C.3    62  SER62       0.2130
     61  OG        21.5480   13.4380   35.9670 O.3    62  SER62      -0.2179
     62  N         24.0910   10.2880   37.9990 N.am   63  TYR63      -0.1960
     63  CA        24.6640    9.5800   39.1350 C.3    63  TYR63       0.1756
     64  C         24.2030   10.1700   40.4520 C.2    63  TYR63       0.2461
     65  O         24.3790   11.3530   40.7110 O.2    63  TYR63      -0.2730
     66  CB        26.1830    9.6170   39.0570 C.3    63  TYR63       0.0574
     67  CG        26.7540    8.6680   38.0300 C.ar   63  TYR63      -0.0198
     68  CD1       26.5640    7.2970   38.1520 C.ar   63  TYR63      -0.0009
     69  CD2       27.5200    9.1370   36.9620 C.ar   63  TYR63      -0.0009
     70  CE1       27.1260    6.4150   37.2490 C.ar   63  TYR63       0.0417
     71  CE2       28.0940    8.2580   36.0450 C.ar   63  TYR63       0.0417
     72  CZ        27.8940    6.9020   36.1980 C.ar   63  TYR63       0.1957
     73  OH        28.4800    6.0200   35.3250 O.3    63  TYR63      -0.2866
     74  N         23.5960    9.3400   41.3060 N.am   64  PRO64      -0.2716
     75  CA        23.1020    9.7800   42.6090 C.3    64  PRO64       0.1521
     76  C         24.2590   10.1150   43.5470 C.2    64  PRO64       0.2440
     77  O         25.3830    9.6350   43.3600 O.2    64  PRO64      -0.2731
     78  CB        22.3200    8.5700   43.0920 C.3    64  PRO64       0.0310
     79  CG        23.1420    7.4530   42.5780 C.3    64  PRO64       0.0237
     80  CD        23.4060    7.8890   41.1520 C.3    64  PRO64       0.0939
     81  N         24.0030   10.9530   44.5650 N.am   65  PRO65      -0.2727
     82  CA        25.0320   11.3420   45.5330 C.3    65  PRO65       0.1402
     83  C         25.5090   10.1060   46.2780 C.2    65  PRO65       0.2269
     84  O         24.8750    9.0480   46.2170 O.2    65  PRO65      -0.2865
     85  CB        24.2800   12.2750   46.4720 C.3    65  PRO65       0.0296
     86  CG        23.2300   12.8520   45.6040 C.3    65  PRO65       0.0237
     87  CD        22.7460   11.6630   44.8400 C.3    65  PRO65       0.0939
     88  N         19.8060    5.3340   46.8800 N.3    98  TYR98      -0.1241
     89  CA        19.4760    5.0780   45.4760 C.3    98  TYR98       0.1605
     90  C         20.1690    3.8200   44.9910 C.2    98  TYR98       0.2264
     91  O         21.0160    3.2510   45.6790 O.2    98  TYR98      -0.2867
     92  CB        19.9390    6.2300   44.5790 C.3    98  TYR98       0.0534
     93  CG        19.3500    7.5680   44.9290 C.ar   98  TYR98      -0.0201
     94  CD1       19.8600    8.3250   45.9800 C.ar   98  TYR98      -0.0009
     95  CD2       18.2350    8.0480   44.2620 C.ar   98  TYR98      -0.0009
     96  CE1       19.2650    9.5210   46.3650 C.ar   98  TYR98       0.0417
     97  CE2       17.6360    9.2390   44.6350 C.ar   98  TYR98       0.0417
     98  CZ        18.1490    9.9620   45.6900 C.ar   98  TYR98       0.1957
     99  OH        17.5000   11.0860   46.1130 O.3    98  TYR98      -0.2866
@<TRIPOS>BOND
     1    55    53    1
     2    26    24    1
     3    43    41   am
     4    25    24    1
     5    24    21    1
     6    42    41    2
     7    53    54    1
     8    53    50    1
     9    41    40    1
    10    52    51    2
    11    21    20    1
    12    21    22    1
    13    40    37    1
    14    50    51    1
    15    50    49    1
    16    23    22    2
    17    51    56   am
    18    37    36    1
    19    37    38    1
    20    22    27   am
    21    47    46    2
    22    49    46   am
    23    30    29    2
    24     7     6    1
    25    46    45    1
    26    73    72    1
    27    44    38   am
    28    44    45    1
    29    36    29   am
    30    38    39    2
    31    29    28    1
    32    27    28    1
    33     6     8    1
    34     6     5    1
    35    61    60    1
    36    56    57    1
    37    71    72   ar
    38    71    69   ar
    39    45    48    1
    40    72    70   ar
    41     1     2    1
    42    28    31    1
    43    57    60    1
    44    57    58    1
    45     5     2    1
    46    69    67   ar
    47    70    68   ar
    48     2     3    1
    49    31    32    1
    50    58    62   am
    51    58    59    2
    52    62    63    1
    53     4     3    2
    54    67    68   ar
    55    67    66    1
    56     3     9   am
    57    32    33    1
    58    66    63    1
    59    63    64    1
    60     9    10    1
    61    33    34    1
    62    64    65    2
    63    64    74   am
    64    10    11    1
    65    34    35    1
    66    11    12    2
    67    80    74    1
    68    80    79    1
    69    74    75    1
    70    79    78    1
    71    19    13    1
    72    19    18    1
    73    75    78    1
    74    75    76    1
    75    13    14    1
    76    77    76    2
    77    76    81   am
    78    18    17    1
    79    95    97   ar
    80    95    93   ar
    81    81    87    1
    82    81    82    1
    83    92    93    1
    84    92    89    1
    85    16    15    2
    86    97    98   ar
    87    14    17    1
    88    14    15    1
    89    87    86    1
    90    93    94   ar
    91    90    89    1
    92    90    91    2
    93    89    88    1
    94    82    83    1
    95    82    85    1
    96    86    85    1
    97    98    99    1
    98    98    96   ar
    99    94    96   ar
   100    84    83    2
