@<TRIPOS>MOLECULE
tmp/2dqyC03.pdb
 110 105 0 0 0
SMALL
GASTEIGER

@<TRIPOS>ATOM
      1  N         47.9730   -6.8450   51.7580 N.3   336  GLY336     -0.1210
      2  CA        49.1480   -6.5480   50.9630 C.3   336  GLY336      0.1956
      3  C         49.6020   -5.1050   50.8670 C.2   336  GLY336      0.2611
      4  O         50.7510   -4.7970   51.1660 O.2   336  GLY336     -0.2717
      5  N         48.7160   -4.2170   50.4370 N.am  337  TRP337     -0.1976
      6  CA        49.0900   -2.8240   50.2940 C.3   337  TRP337      0.1640
      7  C         47.9410   -1.8570   50.5700 C.2   337  TRP337      0.2290
      8  O         48.0630   -0.9700   51.4150 O.2   337  TRP337     -0.2864
      9  CB        49.6340   -2.5830   48.8770 C.3   337  TRP337      0.0576
     10  CG        49.8680   -1.1350   48.5630 C.ar  337  TRP337      0.0006
     11  CD1       50.9060   -0.3640   48.9870 C.ar  337  TRP337      0.0946
     12  CD2       48.9980   -0.2630   47.8360 C.ar  337  TRP337      0.0152
     13  NE1       50.7390    0.9400   48.5750 N.ar  337  TRP337     -0.2442
     14  CE2       49.5740    1.0280   47.8670 C.ar  337  TRP337      0.0810
     15  CE3       47.7870   -0.4460   47.1630 C.ar  337  TRP337      0.0012
     16  CZ2       48.9820    2.1290   47.2560 C.ar  337  TRP337      0.0191
     17  CZ3       47.1950    0.6480   46.5530 C.ar  337  TRP337      0.0001
     18  CH2       47.7960    1.9250   46.6040 C.ar  337  TRP337      0.0015
     19  N         46.6090   -1.3080   54.4350 N.3   340  PRO340     -0.2102
     20  CA        47.6560   -0.6610   55.2300 C.3   340  PRO340      0.1504
     21  C         47.8970    0.7760   54.7760 C.2   340  PRO340      0.2575
     22  O         47.9030    1.7010   55.5830 O.2   340  PRO340     -0.2718
     23  CB        48.8780   -1.5320   54.9680 C.3   340  PRO340      0.0282
     24  CG        48.3040   -2.8520   54.6960 C.3   340  PRO340      0.0208
     25  CD        47.1350   -2.5250   53.8060 C.3   340  PRO340      0.0893
     26  N         48.1080    0.9590   53.4790 N.am  341  MET341     -0.1980
     27  CA        48.3420    2.2870   52.9380 C.3   341  MET341      0.1605
     28  C         47.2510    3.2740   53.3440 C.2   341  MET341      0.2287
     29  O         47.5280    4.4470   53.5670 O.2   341  MET341     -0.2864
     30  CB        48.4590    2.2060   51.4120 C.3   341  MET341      0.0413
     31  CG        48.3140    3.5260   50.6670 C.3   341  MET341      0.0598
     32  SD        46.5840    4.0330   50.4600 S.3   341  MET341     -0.1393
     33  CE        46.1010    3.0050   49.1200 C.3   341  MET341      0.0692
     34  N         49.8130    2.5260   58.0940 N.3   345  TYR345     -0.1241
     35  CA        50.6110    1.6200   58.9000 C.3   345  TYR345      0.1605
     36  C         52.0660    2.0210   58.8650 C.2   345  TYR345      0.2264
     37  O         52.6130    2.2730   57.7990 O.2   345  TYR345     -0.2867
     38  CB        50.4870    0.1910   58.3960 C.3   345  TYR345      0.0534
     39  CG        49.6240   -0.6530   59.2790 C.ar  345  TYR345     -0.0201
     40  CD1       48.2680   -0.3710   59.4200 C.ar  345  TYR345     -0.0009
     41  CD2       50.1660   -1.7210   60.0030 C.ar  345  TYR345     -0.0009
     42  CE1       47.4690   -1.1250   60.2560 C.ar  345  TYR345      0.0417
     43  CE2       49.3740   -2.4860   60.8460 C.ar  345  TYR345      0.0417
     44  CZ        48.0250   -2.1800   60.9660 C.ar  345  TYR345      0.1957
     45  OH        47.2260   -2.9260   61.7910 O.3   345  TYR345     -0.2866
     46  N         54.8850    0.9950   58.4730 N.3   347  LEU347     -0.1231
     47  CA        55.7640    0.0290   57.8570 C.3   347  LEU347      0.1693
     48  C         56.5650    0.6500   56.7230 C.2   347  LEU347      0.2592
     49  O         57.2100   -0.0620   55.9550 O.2   347  LEU347     -0.2718
     50  CB        54.9500   -1.1460   57.3300 C.3   347  LEU347      0.0284
     51  CG        54.2160   -1.9620   58.3820 C.3   347  LEU347      0.0019
     52  CD1       53.2780   -2.8900   57.6460 C.3   347  LEU347      0.0001
     53  CD2       55.2000   -2.7370   59.2800 C.3   347  LEU347      0.0001
     54  N         56.5310    1.9760   56.6150 N.am  348  SER348     -0.1952
     55  CA        57.2550    2.6690   55.5470 C.3   348  SER348      0.1924
     56  C         58.7260    2.2820   55.5430 C.2   348  SER348      0.2314
     57  O         59.4020    2.4400   54.5260 O.2   348  SER348     -0.2863
     58  CB        57.1540    4.1820   55.7150 C.3   348  SER348      0.2116
     59  OG        58.0710    4.6370   56.6900 O.3   348  SER348     -0.2180
     60  N         60.1460   -0.5790   55.4500 N.3   350  GLY350     -0.1225
     61  CA        60.4320   -1.5830   54.4430 C.3   350  GLY350      0.1811
     62  C         60.5800   -2.9720   55.0230 C.2   350  GLY350      0.2280
     63  O         60.3580   -3.9670   54.3360 O.2   350  GLY350     -0.2866
     64  N         58.2020   -8.6410   57.7320 N.3   393  LYS393     -0.1231
     65  CA        57.1670   -7.6420   57.4720 C.3   393  LYS393      0.1693
     66  C         56.1070   -8.3020   56.6210 C.2   393  LYS393      0.2592
     67  O         54.9100   -8.1700   56.8740 O.2   393  LYS393     -0.2718
     68  CB        57.7170   -6.4480   56.7030 C.3   393  LYS393      0.0285
     69  CG        56.6550   -5.3920   56.4440 C.3   393  LYS393      0.0035
     70  CD        56.7930   -4.7480   55.0770 C.3   393  LYS393      0.0206
     71  CE        56.4770   -5.7090   53.9580 C.3   393  LYS393      0.1093
     72  NZ        56.7430   -5.0280   52.6740 N.3   393  LYS393     -0.1314
     73  N         56.5530   -9.0100   55.5950 N.am  394  ASP394     -0.1974
     74  CA        55.6040   -9.6870   54.7520 C.3   394  ASP394      0.1709
     75  C         54.8770  -10.7180   55.5590 C.2   394  ASP394      0.2293
     76  O         53.6580  -10.7340   55.5760 O.2   394  ASP394     -0.2864
     77  CB        56.2870  -10.3590   53.5850 C.3   394  ASP394      0.1436
     78  CG        56.7620   -9.3780   52.5830 C.2   394  ASP394      0.3671
     79  OD1       56.0790   -8.3440   52.4200 O.co2 394  ASP394     -0.2456
     80  OD2       57.8030   -9.6410   51.9520 O.co2 394  ASP394     -0.2456
     81  N         52.3410   -9.1550   57.4610 N.3   397  LEU397     -0.1245
     82  CA        51.1790   -8.7540   56.6680 C.3   397  LEU397      0.1561
     83  C         50.2900   -9.9700   56.4180 C.2   397  LEU397      0.2260
     84  O         49.0850   -9.8340   56.2280 O.2   397  LEU397     -0.2867
     85  CB        51.6180   -8.1510   55.3300 C.3   397  LEU397      0.0270
     86  CG        52.3410   -6.8020   55.3740 C.3   397  LEU397      0.0019
     87  CD1       52.8560   -6.4550   53.9830 C.3   397  LEU397      0.0001
     88  CD2       51.3930   -5.7280   55.8730 C.3   397  LEU397      0.0001
     89  N         51.6180    3.3880   43.1670 N.3   438  MET438     -0.1245
     90  CA        52.3080    3.3150   44.4360 C.3   438  MET438      0.1570
     91  C         52.2100    1.9350   45.0630 C.2   438  MET438      0.2261
     92  O         52.6540    1.7230   46.1870 O.2   438  MET438     -0.2867
     93  CB        51.7550    4.3480   45.4020 C.3   438  MET438      0.0387
     94  CG        51.6690    5.7420   44.8440 C.3   438  MET438      0.0595
     95  SD        50.9750    6.8550   46.0910 S.3   438  MET438     -0.1393
     96  CE        49.1900    6.2650   46.2190 C.3   438  MET438      0.0692
     97  N         53.4820   -1.7280   45.2030 N.3   440  PRO440     -0.2116
     98  CA        54.6670   -2.4760   44.7970 C.3   440  PRO440      0.1372
     99  C         54.2190   -3.5940   43.8820 C.2   440  PRO440      0.2244
    100  O         53.1460   -4.1780   44.0780 O.2   440  PRO440     -0.2868
    101  CB        55.2570   -2.9550   46.1250 C.3   440  PRO440      0.0268
    102  CG        54.0980   -2.9580   47.0510 C.3   440  PRO440      0.0207
    103  CD        53.3300   -1.7340   46.6650 C.3   440  PRO440      0.0892
    104  N         53.3760   -7.1810   45.2570 N.3   443  VAL443     -0.1245
    105  CA        52.1110   -7.5520   45.8600 C.3   443  VAL443      0.1561
    106  C         51.1130   -8.0560   44.8140 C.2   443  VAL443      0.2260
    107  O         50.6540   -7.3140   43.9440 O.2   443  VAL443     -0.2867
    108  CB        51.5170   -6.3680   46.6490 C.3   443  VAL443      0.0252
    109  CG1       50.1670   -6.7500   47.2380 C.3   443  VAL443      0.0019
    110  CG2       52.4750   -5.9760   47.7730 C.3   443  VAL443      0.0019
@<TRIPOS>BOND
     1    89    90    1
     2    99   100    2
     3    99    98    1
     4   107   106    2
     5    90    91    1
     6    90    93    1
     7    98    97    1
     8    98   101    1
     9   106   105    1
    10    94    93    1
    11    94    95    1
    12    91    92    2
    13    97   103    1
    14   104   105    1
    15   105   108    1
    16    95    96    1
    17   101   102    1
    18    17    18   ar
    19    17    15   ar
    20    18    16   ar
    21   108   109    1
    22   108   110    1
    23   103   102    1
    24    15    12   ar
    25    16    14   ar
    26    12    14   ar
    27    12    10   ar
    28    14    13   ar
    29    10     9    1
    30    10    11   ar
    31    13    11   ar
    32     9     6    1
    33    33    32    1
    34     6     5    1
    35     6     7    1
    36     5     3   am
    37    32    31    1
    38     7     8    2
    39    31    30    1
    40     3     2    1
    41     3     4    2
    42     2     1    1
    43    30    27    1
    44    80    78   ar
    45    79    78   ar
    46    78    77    1
    47    72    71    1
    48    27    28    1
    49    27    26    1
    50    28    29    2
    51    26    21   am
    52    77    74    1
    53    25    19    1
    54    25    24    1
    55    71    70    1
    56    87    86    1
    57    63    62    2
    58    19    20    1
    59    61    62    1
    60    61    60    1
    61    57    56    2
    62    24    23    1
    63    74    75    1
    64    74    73    1
    65    21    20    1
    66    21    22    2
    67    23    20    1
    68    70    69    1
    69    85    86    1
    70    85    82    1
    71    86    88    1
    72    56    55    1
    73    55    58    1
    74    55    54    1
    75    75    76    2
    76    73    66   am
    77    58    59    1
    78    49    48    2
    79    84    83    2
    80    83    82    1
    81    69    68    1
    82    54    48   am
    83    66    67    2
    84    66    65    1
    85    82    81    1
    86    68    65    1
    87    48    47    1
    88    50    47    1
    89    50    51    1
    90    65    64    1
    91    52    51    1
    92    37    36    2
    93    47    46    1
    94    34    35    1
    95    51    53    1
    96    38    35    1
    97    38    39    1
    98    36    35    1
    99    39    40   ar
   100    39    41   ar
   101    40    42   ar
   102    41    43   ar
   103    42    44   ar
   104    43    44   ar
   105    44    45    1
