@<TRIPOS>MOLECULE
tmp/2dqyC04.pdb
 213 200 0 0 0
SMALL
GASTEIGER

@<TRIPOS>ATOM
      1  N         33.8700   10.5750   54.4990 N.3    70  ASP70      -0.1239
      2  CA        35.0980   11.3420   54.3480 C.3    70  ASP70       0.1674
      3  C         35.2640   11.5680   52.8580 C.2    70  ASP70       0.2266
      4  O         35.5140   10.6420   52.0960 O.2    70  ASP70      -0.2867
      5  CB        36.3000   10.5650   54.8640 C.3    70  ASP70       0.1410
      6  CG        37.6090   11.3090   54.6680 C.2    70  ASP70       0.3668
      7  OD1       37.6780   12.2470   53.8240 O.co2  70  ASP70      -0.2456
      8  OD2       38.5770   10.9230   55.3720 O.co2  70  ASP70      -0.2456
      9  N         37.6990   12.8510   51.1180 N.3    72  LYS72      -0.1231
     10  CA        39.0190   12.4570   50.6570 C.3    72  LYS72       0.1693
     11  C         39.1080   10.9460   50.5000 C.2    72  LYS72       0.2591
     12  O         39.2780   10.4120   49.3930 O.2    72  LYS72      -0.2718
     13  CB        40.0760   12.9100   51.6560 C.3    72  LYS72       0.0285
     14  CG        41.0680   13.9080   51.1090 C.3    72  LYS72       0.0035
     15  CD        42.2010   14.1240   52.1090 C.3    72  LYS72       0.0206
     16  CE        41.6810   14.7330   53.4320 C.3    72  LYS72       0.1093
     17  NZ        42.6870   14.7300   54.5580 N.3    72  LYS72      -0.1314
     18  N         39.0110   10.2680   51.6360 N.am   73  ALA73      -0.1980
     19  CA        39.0770    8.8200   51.6900 C.3    73  ALA73       0.1597
     20  C         38.0940    8.2150   50.7090 C.2    73  ALA73       0.2287
     21  O         38.3990    7.2420   50.0280 O.2    73  ALA73      -0.2864
     22  CB        38.7550    8.3490   53.0950 C.3    73  ALA73       0.0319
     23  N         39.2240    8.7220   47.1190 N.3    76  LEU76      -0.1231
     24  CA        40.4370    7.9270   46.9480 C.3    76  LEU76       0.1693
     25  C         40.0930    6.4730   46.6290 C.2    76  LEU76       0.2591
     26  O         40.6130    5.8970   45.6680 O.2    76  LEU76      -0.2718
     27  CB        41.3110    7.9860   48.2100 C.3    76  LEU76       0.0284
     28  CG        42.4720    6.9740   48.2510 C.3    76  LEU76       0.0019
     29  CD1       43.2890    7.0240   46.9610 C.3    76  LEU76       0.0001
     30  CD2       43.3380    7.2530   49.4560 C.3    76  LEU76       0.0001
     31  N         39.2170    5.8930   47.4490 N.am   77  LEU77      -0.1980
     32  CA        38.7800    4.5120   47.2810 C.3    77  LEU77       0.1596
     33  C         38.0160    4.3460   45.9650 C.2    77  LEU77       0.2287
     34  O         38.1960    3.3540   45.2590 O.2    77  LEU77      -0.2864
     35  CB        37.8760    4.1090   48.4410 C.3    77  LEU77       0.0297
     36  CG        37.4730    2.6390   48.5040 C.3    77  LEU77       0.0022
     37  CD1       38.6780    1.8020   48.9100 C.3    77  LEU77       0.0001
     38  CD2       36.3450    2.4770   49.4950 C.3    77  LEU77       0.0001
     39  N         39.1160    1.5030   43.1020 N.3    81  PHE81      -0.1241
     40  CA        38.2530    0.3500   42.8480 C.3    81  PHE81       0.1605
     41  C         37.4670    0.4540   41.5500 C.2    81  PHE81       0.2264
     42  O         37.0990   -0.5590   40.9590 O.2    81  PHE81      -0.2867
     43  CB        37.2670    0.1740   44.0030 C.3    81  PHE81       0.0534
     44  CG        37.8300   -0.5590   45.1940 C.ar   81  PHE81      -0.0203
     45  CD1       39.1440   -1.0220   45.2000 C.ar   81  PHE81      -0.0042
     46  CD2       37.0190   -0.8310   46.2960 C.ar   81  PHE81      -0.0042
     47  CE1       39.6340   -1.7540   46.2820 C.ar   81  PHE81      -0.0003
     48  CE2       37.4990   -1.5580   47.3740 C.ar   81  PHE81      -0.0003
     49  CZ        38.8110   -2.0220   47.3690 C.ar   81  PHE81      -0.0000
     50  N         33.8990   -0.6450   51.8720 N.3   122  GLY122     -0.1210
     51  CA        34.4510    0.6170   52.3370 C.3   122  GLY122      0.1956
     52  C         34.3500    0.7330   53.8480 C.2   122  GLY122      0.2612
     53  O         34.1280    1.8180   54.3950 O.2   122  GLY122     -0.2717
     54  N         34.5100   -0.4060   54.5180 N.am  123  GLY123     -0.1956
     55  CA        34.4500   -0.4670   55.9700 C.3   123  GLY123      0.1869
     56  C         33.1990    0.1310   56.5840 C.2   123  GLY123      0.2309
     57  O         33.1860    0.4980   57.7630 O.2   123  GLY123     -0.2863
     58  N         32.8760    4.4680   54.0840 N.3   126  VAL126     -0.1245
     59  CA        32.9350    5.1780   52.8210 C.3   126  VAL126      0.1561
     60  C         32.4360    4.2490   51.7180 C.2   126  VAL126      0.2260
     61  O         32.0750    3.0980   51.9880 O.2   126  VAL126     -0.2867
     62  CB        34.3910    5.6370   52.5360 C.3   126  VAL126      0.0252
     63  CG1       34.9110    6.4630   53.7090 C.3   126  VAL126      0.0019
     64  CG2       35.2910    4.4330   52.3130 C.3   126  VAL126      0.0019
     65  N         34.7250   -6.6780   50.5660 N.3   201  SER201     -0.1202
     66  CA        35.0790   -6.0650   51.8520 C.3   201  SER201      0.2020
     67  C         33.8340   -5.9420   52.7560 C.2   201  SER201      0.2618
     68  O         33.2270   -6.9480   53.1070 O.2   201  SER201     -0.2717
     69  CB        35.7230   -4.6990   51.6180 C.3   201  SER201      0.2103
     70  OG        36.5930   -4.3510   52.6890 O.3   201  SER201     -0.2182
     71  N         33.4380   -4.7390   53.1490 N.am  202  ALA202     -0.1979
     72  CA        32.2550   -4.6420   53.9970 C.3   202  ALA202      0.1597
     73  C         31.0570   -5.1670   53.1950 C.2   202  ALA202      0.2287
     74  O         30.0980   -5.6930   53.7540 O.2   202  ALA202     -0.2864
     75  CB        32.0180   -3.1950   54.4530 C.3   202  ALA202      0.0319
     76  N         34.4420  -11.3610   60.4800 N.3   232  THR232     -0.1218
     77  CA        35.4930  -10.3350   60.3700 C.3   232  THR232      0.1862
     78  C         35.2350   -9.3010   61.4820 C.2   232  THR232      0.2287
     79  O         34.6940   -8.2220   61.2310 O.2   232  THR232     -0.2866
     80  CB        35.4520   -9.6090   58.9710 C.3   232  THR232      0.1770
     81  OG1       35.6230  -10.5670   57.9170 O.3   232  THR232     -0.2211
     82  CG2       36.5560   -8.5560   58.8590 C.3   232  THR232      0.0375
     83  N         36.4050   -6.7760   62.9490 N.3   234  VAL234     -0.1231
     84  CA        36.5420   -5.3430   62.8360 C.3   234  VAL234      0.1692
     85  C         35.2580   -4.6630   62.3760 C.2   234  VAL234      0.2591
     86  O         35.0930   -3.4570   62.5760 O.2   234  VAL234     -0.2718
     87  CB        37.6790   -4.9700   61.8750 C.3   234  VAL234      0.0266
     88  CG1       37.3150   -5.3440   60.4590 C.3   234  VAL234      0.0020
     89  CG2       37.9620   -3.4960   61.9620 C.3   234  VAL234      0.0020
     90  N         34.3400   -5.4270   61.7820 N.am  235  LEU235     -0.1980
     91  CA        33.0710   -4.8770   61.2860 C.3   235  LEU235      0.1596
     92  C         31.8290   -5.2130   62.1120 C.2   235  LEU235      0.2287
     93  O         30.7170   -4.8420   61.7380 O.2   235  LEU235     -0.2864
     94  CB        32.8070   -5.3480   59.8570 C.3   235  LEU235      0.0297
     95  CG        33.7600   -4.8880   58.7680 C.3   235  LEU235      0.0022
     96  CD1       33.2530   -5.3430   57.3970 C.3   235  LEU235      0.0001
     97  CD2       33.8660   -3.3880   58.8290 C.3   235  LEU235      0.0001
     98  N         35.2970   13.1760   61.0040 N.3   279  LEU279     -0.1245
     99  CA        36.7100   13.4240   60.7850 C.3   279  LEU279      0.1561
    100  C         37.4620   13.4260   62.0920 C.2   279  LEU279      0.2260
    101  O         38.5980   12.9500   62.1700 O.2   279  LEU279     -0.2867
    102  CB        36.9170   14.7570   60.0890 C.3   279  LEU279      0.0270
    103  CG        36.3390   14.8440   58.6860 C.3   279  LEU279      0.0019
    104  CD1       36.6910   16.1970   58.0820 C.3   279  LEU279      0.0001
    105  CD2       36.8800   13.7140   57.8430 C.3   279  LEU279      0.0001
    106  N         38.2220    7.6190   62.0100 N.3   283  PHE283     -0.1227
    107  CA        38.0640    6.1930   61.7120 C.3   283  PHE283      0.1736
    108  C         39.0090    5.9100   60.5340 C.2   283  PHE283      0.2595
    109  O         39.6430    6.8350   60.0210 O.2   283  PHE283     -0.2718
    110  CB        36.6130    5.8870   61.2970 C.3   283  PHE283      0.0547
    111  CG        35.5860    6.2250   62.3490 C.ar  283  PHE283     -0.0202
    112  CD1       34.7170    7.3000   62.1780 C.ar  283  PHE283     -0.0042
    113  CD2       35.4730    5.4530   63.5020 C.ar  283  PHE283     -0.0042
    114  CE1       33.7540    7.6030   63.1500 C.ar  283  PHE283     -0.0003
    115  CE2       34.5170    5.7480   64.4790 C.ar  283  PHE283     -0.0003
    116  CZ        33.6540    6.8210   64.3000 C.ar  283  PHE283     -0.0000
    117  N         39.1170    4.6510   60.1130 N.am  284  LEU284     -0.1966
    118  CA        39.9790    4.2810   58.9810 C.3   284  LEU284      0.1728
    119  C         41.4660    4.4650   59.2490 C.2   284  LEU284      0.2616
    120  O         42.2980    4.1420   58.4050 O.2   284  LEU284     -0.2715
    121  CB        39.6450    5.1200   57.7510 C.3   284  LEU284      0.0311
    122  CG        38.1890    5.2420   57.3430 C.3   284  LEU284      0.0022
    123  CD1       38.0550    6.4140   56.3940 C.3   284  LEU284      0.0001
    124  CD2       37.7000    3.9440   56.7380 C.3   284  LEU284      0.0001
    125  N         41.8010    5.0160   60.4050 N.am  285  SER285     -0.1950
    126  CA        43.1950    5.2480   60.7370 C.3   285  SER285      0.1924
    127  C         43.5640    4.5940   62.0450 C.2   285  SER285      0.2314
    128  O         42.9670    4.8690   63.0910 O.2   285  SER285     -0.2863
    129  CB        43.4810    6.7420   60.8070 C.3   285  SER285      0.2116
    130  OG        43.3430    7.3270   59.5210 O.3   285  SER285     -0.2180
    131  N         35.8350    1.6300   63.6910 N.3   298  LEU298     -0.1245
    132  CA        34.7360    2.1750   62.9030 C.3   298  LEU298      0.1561
    133  C         33.4000    1.6050   63.3660 C.2   298  LEU298      0.2260
    134  O         33.3320    0.4690   63.8420 O.2   298  LEU298     -0.2867
    135  CB        34.9660    1.8760   61.4200 C.3   298  LEU298      0.0270
    136  CG        35.2660    0.4150   61.0500 C.3   298  LEU298      0.0019
    137  CD1       33.9620   -0.3540   60.9170 C.3   298  LEU298      0.0001
    138  CD2       36.0450    0.3620   59.7340 C.3   298  LEU298      0.0001
    139  N         46.8340   -2.0340   49.8470 N.3   338  LEU338     -0.1231
    140  CA        45.6540   -1.1680   49.9600 C.3   338  LEU338      0.1693
    141  C         45.2370   -0.8500   51.3890 C.2   338  LEU338      0.2591
    142  O         45.3260    0.3020   51.8260 O.2   338  LEU338     -0.2718
    143  CB        44.4540   -1.7810   49.2090 C.3   338  LEU338      0.0284
    144  CG        43.1560   -0.9650   49.0580 C.3   338  LEU338      0.0019
    145  CD1       43.4190    0.2760   48.2650 C.3   338  LEU338      0.0001
    146  CD2       42.1060   -1.7880   48.3550 C.3   338  LEU338      0.0001
    147  N         44.7880   -1.8590   52.1250 N.am  339  ILE339     -0.1980
    148  CA        44.3510   -1.5860   53.4750 C.3   339  ILE339      0.1595
    149  C         45.3580   -0.8250   54.3410 C.2   339  ILE339      0.2287
    150  O         45.0120    0.2020   54.9260 O.2   339  ILE339     -0.2864
    151  CB        43.9190   -2.8510   54.1810 C.3   339  ILE339      0.0276
    152  CG1       42.8320   -3.5440   53.3770 C.3   339  ILE339      0.0022
    153  CG2       43.3220   -2.4900   55.5260 C.3   339  ILE339      0.0022
    154  CD1       42.2600   -4.7450   54.0750 C.3   339  ILE339      0.0001
    155  N         46.0170    2.7950   53.4580 N.3   342  LEU342     -0.1231
    156  CA        44.8770    3.6470   53.8200 C.3   342  LEU342      0.1693
    157  C         44.8190    4.0270   55.2980 C.2   342  LEU342      0.2592
    158  O         44.4890    5.1690   55.6660 O.2   342  LEU342     -0.2718
    159  CB        43.5850    2.9350   53.4290 C.3   342  LEU342      0.0284
    160  CG        43.3690    2.8170   51.9250 C.3   342  LEU342      0.0019
    161  CD1       42.3210    1.7600   51.6420 C.3   342  LEU342      0.0001
    162  CD2       42.9610    4.1710   51.3560 C.3   342  LEU342      0.0001
    163  N         45.1400    3.0460   56.1340 N.am  343  MET343     -0.1965
    164  CA        45.1290    3.2010   57.5790 C.3   343  MET343      0.1736
    165  C         46.4070    3.8200   58.0870 C.2   343  MET343      0.2617
    166  O         46.5390    4.1200   59.2710 O.2   343  MET343     -0.2715
    167  CB        44.9240    1.8480   58.2360 C.3   343  MET343      0.0427
    168  CG        43.6260    1.2050   57.8700 C.3   343  MET343      0.0599
    169  SD        43.2950   -0.1180   59.0060 S.3   343  MET343     -0.1393
    170  CE        43.1490    0.8170   60.5550 C.3   343  MET343      0.0692
    171  N         47.3610    3.9940   57.1870 N.am  344  SER344     -0.1950
    172  CA        48.6310    4.5990   57.5590 C.3   344  SER344      0.1924
    173  C         49.4590    3.7320   58.5330 C.2   344  SER344      0.2314
    174  O         49.7730    4.1510   59.6450 O.2   344  SER344     -0.2863
    175  CB        48.3590    5.9910   58.1510 C.3   344  SER344      0.2116
    176  OG        47.6640    6.8010   57.2090 O.3   344  SER344     -0.2180
    177  N         41.7220   -4.4360   64.9350 N.3   367  LEU367     -0.1245
    178  CA        41.6010   -5.1280   63.6540 C.3   367  LEU367      0.1561
    179  C         41.7030   -6.6370   63.7930 C.2   367  LEU367      0.2260
    180  O         40.9960   -7.3690   63.1140 O.2   367  LEU367     -0.2867
    181  CB        42.6910   -4.6650   62.6910 C.3   367  LEU367      0.0270
    182  CG        42.5880   -3.2580   62.1390 C.3   367  LEU367      0.0019
    183  CD1       43.7930   -2.9590   61.2670 C.3   367  LEU367      0.0001
    184  CD2       41.3140   -3.1360   61.3530 C.3   367  LEU367      0.0001
    185  N         41.9050  -11.3990   59.6170 N.3   404  MET404     -0.1230
    186  CA        40.7960  -10.5970   59.1300 C.3   404  MET404      0.1702
    187  C         39.9730  -11.2540   58.0430 C.2   404  MET404      0.2592
    188  O         38.7640  -11.0740   58.0020 O.2   404  MET404     -0.2718
    189  CB        41.2970   -9.2590   58.6080 C.3   404  MET404      0.0401
    190  CG        42.0630   -8.4660   59.6180 C.3   404  MET404      0.0596
    191  SD        41.9170   -6.7540   59.2400 S.3   404  MET404     -0.1393
    192  CE        43.0720   -6.6400   57.9460 C.3   404  MET404      0.0692
    193  N         40.6140  -12.0030   57.1550 N.am  405  PHE405     -0.1976
    194  CA        39.8740  -12.6260   56.0770 C.3   405  PHE405      0.1639
    195  C         40.0870  -14.1220   55.9340 C.2   405  PHE405      0.2290
    196  O         39.1310  -14.8950   55.8780 O.2   405  PHE405     -0.2864
    197  CB        40.2130  -11.9530   54.7530 C.3   405  PHE405      0.0560
    198  CG        40.2050  -10.4530   54.8130 C.ar  405  PHE405     -0.0200
    199  CD1       41.3490   -9.7580   55.1850 C.ar  405  PHE405     -0.0042
    200  CD2       39.0510   -9.7380   54.5230 C.ar  405  PHE405     -0.0042
    201  CE1       41.3470   -8.3740   55.2700 C.ar  405  PHE405     -0.0003
    202  CE2       39.0340   -8.3550   54.6050 C.ar  405  PHE405     -0.0003
    203  CZ        40.1870   -7.6710   54.9800 C.ar  405  PHE405     -0.0000
    204  N         43.9150   -6.7780   48.3340 N.3   447  HIS447     -0.1241
    205  CA        42.5250   -6.4700   48.6230 C.3   447  HIS447      0.1621
    206  C         41.8460   -5.7550   47.4600 C.2   447  HIS447      0.2264
    207  O         42.3490   -4.7520   46.9540 O.2   447  HIS447     -0.2867
    208  CB        42.4570   -5.5790   49.8530 C.3   447  HIS447      0.0745
    209  CG        41.1410   -5.6340   50.5610 C.ar  447  HIS447      0.0817
    210  ND1       40.6650   -6.7850   51.1530 N.ar  447  HIS447     -0.2268
    211  CD2       40.2090   -4.6790   50.7960 C.ar  447  HIS447      0.1154
    212  CE1       39.5020   -6.5360   51.7250 C.ar  447  HIS447      0.1986
    213  NE2       39.2020   -5.2660   51.5240 N.ar  447  HIS447     -0.2212
@<TRIPOS>BOND
     1    42    41    2
     2    41    40    1
     3    40    39    1
     4    40    43    1
     5    43    44    1
     6    44    45   ar
     7    44    46   ar
     8    45    47   ar
     9    34    33    2
    10    26    25    2
    11    33    32    1
    12    47    49   ar
    13    46    48   ar
    14    25    24    1
    15    25    31   am
    16    24    23    1
    17    24    27    1
    18   207   206    2
    19    29    28    1
    20    32    31    1
    21    32    35    1
    22    49    48   ar
    23   206   205    1
    24    27    28    1
    25    28    30    1
    26   145   144    1
    27   204   205    1
    28   146   144    1
    29    35    36    1
    30    36    37    1
    31    36    38    1
    32   205   208    1
    33   144   143    1
    34   143   140    1
    35    12    11    2
    36   139   140    1
    37   208   209    1
    38   140   141    1
    39    21    20    2
    40    11    10    1
    41    11    18   am
    42   209   211   ar
    43   209   210   ar
    44    65    66    1
    45    10     9    1
    46    10    13    1
    47    20    19    1
    48   211   213   ar
    49    14    13    1
    50    14    15    1
    51   210   212   ar
    52   162   160    1
    53   141   142    2
    54   141   147   am
    55   213   212   ar
    56    69    66    1
    57    69    70    1
    58    18    19    1
    59   161   160    1
    60    19    22    1
    61    60    61    2
    62    60    59    1
    63    66    67    1
    64    50    51    1
    65   160   159    1
    66     4     3    2
    67    15    16    1
    68   147   148    1
    69    64    62    1
    70    51    52    1
    71    62    59    1
    72    62    63    1
    73    67    68    2
    74    67    71   am
    75    59    58    1
    76     3     2    1
    77    71    72    1
    78    73    74    2
    79    73    72    1
    80   152   154    1
    81   152   151    1
    82   159   156    1
    83    16    17    1
    84   155   156    1
    85   148   151    1
    86   148   149    1
    87   156   157    1
    88     7     6   ar
    89    52    53    2
    90    52    54   am
    91    72    75    1
    92   151   153    1
    93   149   150    2
    94     2     1    1
    95     2     5    1
    96    54    55    1
    97   200   202   ar
    98   200   198   ar
    99   202   203   ar
   100     6     5    1
   101     6     8   ar
   102   197   198    1
   103   197   194    1
   104   198   199   ar
   105   203   201   ar
   106   199   201   ar
   107   157   158    2
   108   157   163   am
   109   196   195    2
   110   195   194    1
   111    55    56    1
   112   194   193    1
   113   163   164    1
   114   123   122    1
   115    56    57    2
   116   124   122    1
   117   193   187   am
   118   171   172    1
   119   171   165   am
   120   176   175    1
   121   122   121    1
   122    96    95    1
   123   172   175    1
   124   172   173    1
   125   164   165    1
   126   164   167    1
   127   121   118    1
   128   105   103    1
   129   168   167    1
   130   168   169    1
   131    81    80    1
   132   192   191    1
   133   188   187    2
   134   187   186    1
   135   104   103    1
   136   165   166    2
   137   120   119    2
   138   173   174    2
   139   189   186    1
   140   189   190    1
   141   103   102    1
   142    95    97    1
   143    95    94    1
   144    82    80    1
   145    80    77    1
   146   118   119    1
   147   118   117    1
   148   169   170    1
   149   186   185    1
   150   191   190    1
   151   119   125   am
   152   130   129    1
   153   138   136    1
   154    94    91    1
   155   109   108    2
   156   102    99    1
   157   117   108   am
   158    77    76    1
   159    77    78    1
   160   125   126    1
   161    88    87    1
   162   108   107    1
   163   126   129    1
   164   126   127    1
   165    99    98    1
   166    99   100    1
   167   137   136    1
   168   136   135    1
   169    79    78    2
   170   183   182    1
   171    91    90    1
   172    91    92    1
   173   110   107    1
   174   110   111    1
   175   184   182    1
   176   135   132    1
   177   107   106    1
   178    93    92    2
   179    90    85   am
   180    87    89    1
   181    87    84    1
   182   127   128    2
   183   100   101    2
   184   182   181    1
   185   112   111   ar
   186   112   114   ar
   187   111   113   ar
   188    85    86    2
   189    85    84    1
   190   181   178    1
   191    84    83    1
   192   132   133    1
   193   132   131    1
   194   180   179    2
   195   114   116   ar
   196   133   134    2
   197   113   115   ar
   198   178   179    1
   199   178   177    1
   200   116   115   ar
