@<TRIPOS>MOLECULE
tmp/2dqzC03.pdb
 118 115 0 0 0
SMALL
GASTEIGER

@<TRIPOS>ATOM
      1  N         32.6030  -13.1040   60.8320 N.3   231  LEU231     -0.1231
      2  CA        33.5990  -13.4010   61.8620 C.3   231  LEU231      0.1693
      3  C         34.7980  -12.4390   61.8340 C.2   231  LEU231      0.2593
      4  O         35.7550  -12.5970   62.5990 O.2   231  LEU231     -0.2718
      5  CB        34.0700  -14.8550   61.7370 C.3   231  LEU231      0.0284
      6  CG        33.0870  -15.9490   62.1760 C.3   231  LEU231      0.0019
      7  CD1       33.7450  -17.3170   62.0450 C.3   231  LEU231      0.0001
      8  CD2       32.6730  -15.7310   63.6010 C.3   231  LEU231      0.0001
      9  N         34.7420  -11.4490   60.9450 N.am  232  THR232     -0.1939
     10  CA        35.7940  -10.4390   60.8480 C.3   232  THR232      0.2028
     11  C         35.4690   -9.4440   61.9790 C.2   232  THR232      0.2643
     12  O         34.8420   -8.4050   61.7650 O.2   232  THR232     -0.2714
     13  CB        35.7690   -9.7280   59.4470 C.3   232  THR232      0.1808
     14  OG1       35.9520  -10.7000   58.4080 O.3   232  THR232     -0.2208
     15  CG2       36.8700   -8.6800   59.3340 C.3   232  THR232      0.0379
     16  N         35.8900   -9.8040   63.1880 N.am  233  SER233     -0.1935
     17  CA        35.6560   -9.0260   64.4030 C.3   233  SER233      0.2055
     18  C         35.7170   -7.5100   64.3320 C.2   233  SER233      0.2642
     19  O         34.9500   -6.8260   65.0060 O.2   233  SER233     -0.2714
     20  CB        36.6230   -9.4790   65.4910 C.3   233  SER233      0.2130
     21  OG        36.3970  -10.8340   65.8110 O.3   233  SER233     -0.2179
     22  N         36.6400   -6.9810   63.5460 N.am  234  VAL234     -0.1977
     23  CA        36.7750   -5.5430   63.4610 C.3   234  VAL234      0.1596
     24  C         35.4470   -4.8590   63.1460 C.2   234  VAL234      0.2287
     25  O         35.1770   -3.7540   63.6190 O.2   234  VAL234     -0.2864
     26  CB        37.8050   -5.1570   62.3980 C.3   234  VAL234      0.0276
     27  CG1       37.2300   -5.3570   61.0110 C.3   234  VAL234      0.0022
     28  CG2       38.2490   -3.7340   62.6120 C.3   234  VAL234      0.0022
     29  N         42.1100   -4.4910   65.5160 N.3   367  LEU367     -0.1231
     30  CA        41.9600   -5.2390   64.2730 C.3   367  LEU367      0.1693
     31  C         41.9240   -6.7400   64.4910 C.2   367  LEU367      0.2592
     32  O         41.0100   -7.4260   64.0410 O.2   367  LEU367     -0.2718
     33  CB        43.1050   -4.9220   63.3160 C.3   367  LEU367      0.0284
     34  CG        43.0520   -3.5890   62.5890 C.3   367  LEU367      0.0019
     35  CD1       44.2790   -3.4550   61.7100 C.3   367  LEU367      0.0001
     36  CD2       41.7900   -3.5120   61.7560 C.3   367  LEU367      0.0001
     37  N         42.9310   -7.2470   65.1830 N.am  368  VAL368     -0.1966
     38  CA        43.0230   -8.6680   65.4340 C.3   368  VAL368      0.1727
     39  C         42.5270   -9.0800   66.8160 C.2   368  VAL368      0.2616
     40  O         42.4380  -10.2690   67.1180 O.2   368  VAL368     -0.2715
     41  CB        44.4690   -9.1400   65.2450 C.3   368  VAL368      0.0290
     42  CG1       44.8200   -9.1180   63.7730 C.3   368  VAL368      0.0023
     43  CG2       45.4130   -8.2330   66.0120 C.3   368  VAL368      0.0023
     44  N         42.2040   -8.1000   67.6510 N.am  369  CYS369     -0.1968
     45  CA        41.7170   -8.3680   69.0000 C.3   369  CYS369      0.1712
     46  C         42.4880   -9.5040   69.6910 C.2   369  CYS369      0.2296
     47  O         41.8840  -10.4160   70.2550 O.2   369  CYS369     -0.2864
     48  CB        40.2210   -8.7090   68.9610 C.3   369  CYS369      0.0983
     49  SG        39.1940   -7.4960   68.0730 S.3   369  CYS369     -0.0798
     50  N         44.0900  -13.6160   60.6040 N.3   403  VAL403     -0.1231
     51  CA        43.1520  -13.3210   61.6830 C.3   403  VAL403      0.1692
     52  C         41.9430  -12.5050   61.1900 C.2   403  VAL403      0.2591
     53  O         40.8300  -12.7280   61.6480 O.2   403  VAL403     -0.2718
     54  CB        43.8360  -12.5560   62.8810 C.3   403  VAL403      0.0266
     55  CG1       42.8500  -12.4100   64.0370 C.3   403  VAL403      0.0020
     56  CG2       45.0670  -13.2990   63.3610 C.3   403  VAL403      0.0020
     57  N         42.1360  -11.5810   60.2550 N.am  404  MET404     -0.1979
     58  CA        41.0020  -10.7880   59.7850 C.3   404  MET404      0.1605
     59  C         40.1650  -11.4470   58.6880 C.2   404  MET404      0.2287
     60  O         38.9610  -11.2220   58.6070 O.2   404  MET404     -0.2864
     61  CB        41.4650   -9.4200   59.2770 C.3   404  MET404      0.0413
     62  CG        42.3570   -8.6700   60.2410 C.3   404  MET404      0.0598
     63  SD        42.3670   -6.9410   59.8680 S.3   404  MET404     -0.1393
     64  CE        43.1760   -6.9930   58.3530 C.3   404  MET404      0.0692
     65  N         41.3310  -17.1890   58.5420 N.3   407  VAL407     -0.1231
     66  CA        40.6600  -18.0810   59.4740 C.3   407  VAL407      0.1678
     67  C         39.1380  -17.8800   59.5240 C.2   407  VAL407      0.2434
     68  O         38.3730  -18.8460   59.4000 O.2   407  VAL407     -0.2733
     69  CB        41.2530  -17.9370   60.8940 C.3   407  VAL407      0.0265
     70  CG1       40.4170  -18.7160   61.8970 C.3   407  VAL407      0.0020
     71  CG2       42.6840  -18.4490   60.8980 C.3   407  VAL407      0.0020
     72  N         38.6770  -16.6250   59.7060 N.am  408  PRO408     -0.2729
     73  CA        37.2420  -16.3090   59.7690 C.3   408  PRO408      0.1401
     74  C         36.4700  -16.8880   58.5800 C.2   408  PRO408      0.2269
     75  O         35.4580  -17.5780   58.7500 O.2   408  PRO408     -0.2865
     76  CB        37.2340  -14.7810   59.7730 C.3   408  PRO408      0.0296
     77  CG        38.4730  -14.4610   60.5200 C.3   408  PRO408      0.0237
     78  CD        39.4790  -15.4030   59.9080 C.3   408  PRO408      0.0939
     79  N         36.2470  -20.8460   58.6740 N.3   411  ILE411     -0.1245
     80  CA        35.3320  -21.2470   59.7420 C.3   411  ILE411      0.1561
     81  C         33.8870  -20.9900   59.3060 C.2   411  ILE411      0.2260
     82  O         33.0120  -21.8320   59.4940 O.2   411  ILE411     -0.2867
     83  CB        35.6270  -20.4590   61.0460 C.3   411  ILE411      0.0252
     84  CG1       36.9390  -20.9550   61.6510 C.3   411  ILE411      0.0019
     85  CG2       34.4810  -20.5940   62.0280 C.3   411  ILE411      0.0019
     86  CD1       37.3360  -20.2660   62.9440 C.3   411  ILE411      0.0001
     87  N         45.1100  -20.8310   65.4010 N.3   526  TRP526     -0.1227
     88  CA        44.3680  -19.7150   65.9540 C.3   526  TRP526      0.1737
     89  C         43.2050  -20.1090   66.8390 C.2   526  TRP526      0.2596
     90  O         42.9180  -19.4140   67.8100 O.2   526  TRP526     -0.2718
     91  CB        43.8960  -18.7880   64.8370 C.3   526  TRP526      0.0564
     92  CG        44.9940  -17.8930   64.3490 C.ar  526  TRP526      0.0003
     93  CD1       45.5990  -17.9260   63.1260 C.ar  526  TRP526      0.0946
     94  CD2       45.6590  -16.8650   65.0960 C.ar  526  TRP526      0.0152
     95  NE1       46.6000  -16.9880   63.0650 N.ar  526  TRP526     -0.2442
     96  CE2       46.6590  -16.3230   64.2590 C.ar  526  TRP526      0.0810
     97  CE3       45.5090  -16.3510   66.3910 C.ar  526  TRP526      0.0012
     98  CZ2       47.5070  -15.2910   64.6760 C.ar  526  TRP526      0.0191
     99  CZ3       46.3540  -15.3230   66.8060 C.ar  526  TRP526      0.0001
    100  CH2       47.3400  -14.8070   65.9510 C.ar  526  TRP526      0.0015
    101  N         42.5290  -21.2090   66.5230 N.am  527  THR527     -0.1953
    102  CA        41.4190  -21.6400   67.3640 C.3   527  THR527      0.1897
    103  C         41.9450  -22.1500   68.7140 C.2   527  THR527      0.2313
    104  O         41.3340  -21.9060   69.7540 O.2   527  THR527     -0.2863
    105  CB        40.5860  -22.7500   66.6880 C.3   527  THR527      0.1794
    106  OG1       40.0090  -22.2400   65.4810 O.3   527  THR527     -0.2208
    107  CG2       39.4650  -23.2190   67.6150 C.3   527  THR527      0.0378
    108  N         43.3980  -18.9040   70.8670 N.3   530  PHE530     -0.1241
    109  CA        42.2930  -18.1230   71.4090 C.3   530  PHE530      0.1605
    110  C         41.5150  -18.8880   72.4790 C.2   530  PHE530      0.2264
    111  O         40.8810  -18.2850   73.3440 O.2   530  PHE530     -0.2867
    112  CB        41.3410  -17.7070   70.2780 C.3   530  PHE530      0.0534
    113  CG        41.8060  -16.5060   69.4920 C.ar  530  PHE530     -0.0203
    114  CD1       41.5550  -16.4120   68.1260 C.ar  530  PHE530     -0.0042
    115  CD2       42.4740  -15.4580   70.1180 C.ar  530  PHE530     -0.0042
    116  CE1       41.9610  -15.2930   67.3990 C.ar  530  PHE530     -0.0003
    117  CE2       42.8820  -14.3350   69.3980 C.ar  530  PHE530     -0.0003
    118  CZ        42.6270  -14.2550   68.0380 C.ar  530  PHE530     -0.0000
@<TRIPOS>BOND
     1    64    63    1
     2    14    13    1
     3    65    66    1
     4    74    75    2
     5    74    73    1
     6    60    59    2
     7    79    80    1
     8    59    58    1
     9    61    58    1
    10    61    62    1
    11    81    82    2
    12    81    80    1
    13    15    13    1
    14    68    67    2
    15    13    10    1
    16    66    67    1
    17    66    69    1
    18    67    72   am
    19    72    73    1
    20    72    78    1
    21    80    83    1
    22    73    76    1
    23    76    77    1
    24    58    57    1
    25    63    62    1
    26    78    77    1
    27    57    52   am
    28    50    51    1
    29     1     2    1
    30    10     9    1
    31    10    11    1
    32    69    71    1
    33    69    70    1
    34     9     3   am
    35    27    26    1
    36    83    84    1
    37    83    85    1
    38    52    53    2
    39    52    51    1
    40    84    86    1
    41    51    54    1
    42    35    34    1
    43     5     2    1
    44     5     6    1
    45    36    34    1
    46    12    11    2
    47     3     2    1
    48     3     4    2
    49    11    16   am
    50     7     6    1
    51     6     8    1
    52    26    28    1
    53    26    23    1
    54    34    33    1
    55    54    56    1
    56    54    55    1
    57    95    93   ar
    58    95    96   ar
    59    93    92   ar
    60    24    23    1
    61    24    25    2
    62    16    17    1
    63    33    30    1
    64    23    22    1
    65    22    18   am
    66    42    41    1
    67    32    31    2
    68    96    98   ar
    69    96    94   ar
    70    30    31    1
    71    30    29    1
    72    18    17    1
    73    18    19    2
    74    92    91    1
    75    92    94   ar
    76    17    20    1
    77    31    37   am
    78    98   100   ar
    79    91    88    1
    80    94    97   ar
    81    37    38    1
    82    41    38    1
    83    41    43    1
    84    87    88    1
    85    38    39    1
    86   106   105    1
    87    20    21    1
    88   100    99   ar
    89    88    89    1
    90    97    99   ar
    91   101    89   am
    92   101   102    1
    93   105   102    1
    94   105   107    1
    95    39    40    2
    96    39    44   am
    97    89    90    2
    98   102   103    1
    99   116   118   ar
   100   116   114   ar
   101    44    45    1
   102   118   117   ar
   103    49    48    1
   104   114   113   ar
   105   103   104    2
   106    48    45    1
   107    45    46    1
   108   117   115   ar
   109   113   115   ar
   110   113   112    1
   111    46    47    2
   112   112   109    1
   113   108   109    1
   114   109   110    1
   115   110   111    2
