@<TRIPOS>MOLECULE
tmp/2dqzA03.pdb
 173 161 0 0 0
SMALL
GASTEIGER

@<TRIPOS>ATOM
      1  N          3.9950   45.9640   49.8240 N.3    73  ALA73      -0.1245
      2  CA         3.1620   45.6500   48.6630 C.3    73  ALA73       0.1562
      3  C          1.7770   45.1380   49.0710 C.2    73  ALA73       0.2260
      4  O          0.7730   45.4850   48.4480 O.2    73  ALA73      -0.2867
      5  CB         3.8580   44.6130   47.7870 C.3    73  ALA73       0.0290
      6  N         -0.4850   47.9620   50.3730 N.3    76  LEU76      -0.1231
      7  CA        -0.8230   48.8940   49.3100 C.3    76  LEU76       0.1693
      8  C         -2.0160   48.3730   48.5090 C.2    76  LEU76       0.2591
      9  O         -3.0020   49.0890   48.2940 O.2    76  LEU76      -0.2718
     10  CB         0.3770   49.0980   48.3830 C.3    76  LEU76       0.0284
     11  CG         0.1320   49.9580   47.1400 C.3    76  LEU76       0.0019
     12  CD1        0.0200   51.4180   47.5290 C.3    76  LEU76       0.0001
     13  CD2        1.2730   49.7560   46.1570 C.3    76  LEU76       0.0001
     14  N         -1.9220   47.1180   48.0760 N.am   77  LEU77      -0.1980
     15  CA        -2.9800   46.4910   47.2940 C.3    77  LEU77       0.1596
     16  C         -4.2880   46.4280   48.0740 C.2    77  LEU77       0.2287
     17  O         -5.3640   46.5540   47.4870 O.2    77  LEU77      -0.2864
     18  CB        -2.5690   45.0800   46.8750 C.3    77  LEU77       0.0297
     19  CG        -3.5480   44.3340   45.9680 C.3    77  LEU77       0.0022
     20  CD1       -3.6640   45.0180   44.6090 C.3    77  LEU77       0.0001
     21  CD2       -3.0600   42.9110   45.8110 C.3    77  LEU77       0.0001
     22  N         -7.8330   47.9940   46.8340 N.3    81  PHE81      -0.1241
     23  CA        -8.9130   47.0780   46.5010 C.3    81  PHE81       0.1605
     24  C        -10.0160   47.0200   47.5380 C.2    81  PHE81       0.2264
     25  O        -11.1580   46.6840   47.2240 O.2    81  PHE81      -0.2867
     26  CB        -8.3340   45.6770   46.2910 C.3    81  PHE81       0.0534
     27  CG        -7.8310   45.4250   44.8990 C.ar   81  PHE81      -0.0203
     28  CD1       -7.6770   46.4680   43.9850 C.ar   81  PHE81      -0.0042
     29  CD2       -7.5330   44.1310   44.4940 C.ar   81  PHE81      -0.0042
     30  CE1       -7.2370   46.2140   42.6850 C.ar   81  PHE81      -0.0003
     31  CE2       -7.0960   43.8660   43.2090 C.ar   81  PHE81      -0.0003
     32  CZ        -6.9460   44.9050   42.2970 C.ar   81  PHE81      -0.0000
     33  N         -3.7710   38.9390   43.7980 N.3   122  GLY122     -0.1210
     34  CA        -2.4720   39.4860   44.1730 C.3   122  GLY122      0.1956
     35  C         -1.3180   38.6490   43.6280 C.2   122  GLY122      0.2612
     36  O         -0.3480   38.3780   44.3350 O.2   122  GLY122     -0.2717
     37  N         -1.4360   38.2310   42.3700 N.am  123  GLY123     -0.1956
     38  CA        -0.4060   37.4360   41.7170 C.3   123  GLY123      0.1869
     39  C          0.1320   36.2140   42.4440 C.2   123  GLY123      0.2309
     40  O          1.2290   35.7460   42.1430 O.2   123  GLY123     -0.2863
     41  N          1.2350   36.1670   45.2560 N.3   125  MET125     -0.1230
     42  CA         2.3760   36.6100   46.0580 C.3   125  MET125      0.1702
     43  C          1.9410   37.4420   47.2670 C.2   125  MET125      0.2592
     44  O          2.5970   37.4240   48.3100 O.2   125  MET125     -0.2718
     45  CB         3.3470   37.4180   45.1960 C.3   125  MET125      0.0401
     46  CG         3.9760   36.6310   44.0640 C.3   125  MET125      0.0596
     47  SD         4.9360   35.2120   44.6550 S.3   125  MET125     -0.1393
     48  CE         6.1120   36.0370   45.7280 C.3   125  MET125      0.0692
     49  N          0.8350   38.1680   47.1180 N.am  126  VAL126     -0.1980
     50  CA         0.2900   38.9960   48.1910 C.3   126  VAL126      0.1595
     51  C         -1.2350   38.9340   48.1750 C.2   126  VAL126      0.2287
     52  O         -1.8380   38.3130   47.2920 O.2   126  VAL126     -0.2864
     53  CB         0.7150   40.4760   48.0470 C.3   126  VAL126      0.0276
     54  CG1        2.2290   40.5760   48.0220 C.3   126  VAL126      0.0022
     55  CG2        0.1140   41.0770   46.7750 C.3   126  VAL126      0.0022
     56  N         -8.4070   38.4170   39.4720 N.3   201  SER201     -0.1202
     57  CA        -6.9810   38.3470   39.1540 C.3   201  SER201      0.2020
     58  C         -6.4040   36.9550   39.4180 C.2   201  SER201      0.2618
     59  O         -6.7910   35.9830   38.7570 O.2   201  SER201     -0.2717
     60  CB        -6.2150   39.4150   39.9480 C.3   201  SER201      0.2103
     61  OG        -5.0070   39.7960   39.3050 O.3   201  SER201     -0.2182
     62  N         -5.4690   36.8430   40.3570 N.am  202  ALA202     -0.1979
     63  CA        -4.9140   35.5240   40.6620 C.3   202  ALA202      0.1597
     64  C         -6.0450   34.7030   41.2700 C.2   202  ALA202      0.2287
     65  O         -5.9930   33.4770   41.2770 O.2   202  ALA202     -0.2864
     66  CB        -3.7540   35.6390   41.6430 C.3   202  ALA202      0.0319
     67  N         -3.6490   32.3680   31.4910 N.3   232  THR232     -0.1218
     68  CA        -2.8530   33.5760   31.7520 C.3   232  THR232      0.1862
     69  C         -1.4340   33.1020   32.1090 C.2   232  THR232      0.2287
     70  O         -1.0250   33.1240   33.2710 O.2   232  THR232     -0.2866
     71  CB        -3.4530   34.4170   32.9460 C.3   232  THR232      0.1770
     72  OG1       -4.8020   34.7940   32.6420 O.3   232  THR232     -0.2211
     73  CG2       -2.6360   35.6890   33.1970 C.3   232  THR232      0.0375
     74  N          1.5530   33.9220   32.6360 N.3   234  VAL234     -0.1231
     75  CA         2.3010   34.4810   33.7530 C.3   234  VAL234      0.1692
     76  C          2.1030   33.7480   35.0980 C.2   234  VAL234      0.2591
     77  O          3.0500   33.5980   35.8730 O.2   234  VAL234     -0.2718
     78  CB         1.9800   36.0070   33.8910 C.3   234  VAL234      0.0266
     79  CG1        0.5170   36.2050   34.2410 C.3   234  VAL234      0.0020
     80  CG2        2.8970   36.6590   34.9100 C.3   234  VAL234      0.0020
     81  N          0.8920   33.2670   35.3660 N.am  235  LEU235     -0.1980
     82  CA         0.6070   32.5710   36.6240 C.3   235  LEU235      0.1596
     83  C          0.7680   31.0600   36.5670 C.2   235  LEU235      0.2287
     84  O          0.6340   30.3760   37.5820 O.2   235  LEU235     -0.2864
     85  CB        -0.8120   32.8780   37.0980 C.3   235  LEU235      0.0297
     86  CG        -1.0810   34.3150   37.5020 C.3   235  LEU235      0.0022
     87  CD1       -2.4820   34.3840   38.0370 C.3   235  LEU235      0.0001
     88  CD2       -0.0690   34.7810   38.5470 C.3   235  LEU235      0.0001
     89  N          7.6530   41.0770   42.3510 N.3   284  LEU284     -0.1245
     90  CA         6.7000   42.0230   41.7640 C.3   284  LEU284      0.1561
     91  C          7.2780   42.8730   40.6270 C.2   284  LEU284      0.2260
     92  O          6.7160   42.9340   39.5290 O.2   284  LEU284     -0.2867
     93  CB         6.1510   42.9570   42.8550 C.3   284  LEU284      0.0270
     94  CG         5.5960   44.3140   42.3790 C.3   284  LEU284      0.0019
     95  CD1        4.4210   44.0890   41.4300 C.3   284  LEU284      0.0001
     96  CD2        5.1790   45.1560   43.5760 C.3   284  LEU284      0.0001
     97  N          7.0870   35.0860   39.0250 N.3   298  LEU298     -0.1245
     98  CA         6.6250   34.4940   40.2730 C.3   298  LEU298      0.1561
     99  C          6.6970   32.9700   40.3230 C.2   298  LEU298      0.2260
    100  O          7.4000   32.3270   39.5450 O.2   298  LEU298     -0.2867
    101  CB         5.1890   34.9690   40.5670 C.3   298  LEU298      0.0270
    102  CG         4.1890   35.0610   39.4010 C.3   298  LEU298      0.0019
    103  CD1        3.7160   33.6750   39.0020 C.3   298  LEU298      0.0001
    104  CD2        3.0020   35.9080   39.8180 C.3   298  LEU298      0.0001
    105  N         -3.3180   50.4050   37.2030 N.3   338  LEU338     -0.1231
    106  CA        -2.9960   49.5380   38.3410 C.3   338  LEU338      0.1693
    107  C         -1.7530   48.6540   38.2510 C.2   338  LEU338      0.2591
    108  O         -0.7760   48.8590   38.9750 O.2   338  LEU338     -0.2718
    109  CB        -4.1900   48.6440   38.6600 C.3   338  LEU338      0.0284
    110  CG        -4.0310   47.8510   39.9580 C.3   338  LEU338      0.0019
    111  CD1       -4.2280   48.7970   41.1490 C.3   338  LEU338      0.0001
    112  CD2       -5.0510   46.7070   39.9920 C.3   338  LEU338      0.0001
    113  N         -1.8040   47.6500   37.3860 N.am  339  ILE339     -0.1980
    114  CA        -0.6820   46.7470   37.2440 C.3   339  ILE339      0.1595
    115  C          0.5920   47.4990   36.8660 C.2   339  ILE339      0.2287
    116  O          1.6020   47.3820   37.5520 O.2   339  ILE339     -0.2864
    117  CB        -0.9880   45.6400   36.2150 C.3   339  ILE339      0.0276
    118  CG1       -2.2680   44.9050   36.6150 C.3   339  ILE339      0.0022
    119  CG2        0.1570   44.6540   36.1530 C.3   339  ILE339      0.0022
    120  CD1       -2.7200   43.8680   35.6210 C.3   339  ILE339      0.0001
    121  N          2.1300   49.2310   39.7580 N.3   342  LEU342     -0.1231
    122  CA         2.6790   48.3250   40.7690 C.3   342  LEU342      0.1693
    123  C          3.9760   47.6370   40.3450 C.2   342  LEU342      0.2591
    124  O          4.7320   47.1540   41.1850 O.2   342  LEU342     -0.2718
    125  CB         1.6400   47.2660   41.1520 C.3   342  LEU342      0.0284
    126  CG         0.3710   47.7510   41.8650 C.3   342  LEU342      0.0019
    127  CD1       -0.6230   46.6030   41.9590 C.3   342  LEU342      0.0001
    128  CD2        0.7110   48.2920   43.2550 C.3   342  LEU342      0.0001
    129  N          4.2290   47.5830   39.0450 N.am  343  MET343     -0.1979
    130  CA         5.4450   46.9600   38.5510 C.3   343  MET343      0.1605
    131  C          6.4630   48.0200   38.1660 C.2   343  MET343      0.2287
    132  O          7.6300   47.7160   37.9110 O.2   343  MET343     -0.2864
    133  CB         5.1270   46.0780   37.3570 C.3   343  MET343      0.0413
    134  CG         4.2050   44.9550   37.7180 C.3   343  MET343      0.0598
    135  SD         4.0960   43.7760   36.3990 S.3   343  MET343     -0.1393
    136  CE         5.6440   42.9090   36.6350 C.3   343  MET343      0.0692
    137  N          5.6450   38.5550   31.1610 N.3   367  LEU367     -0.1245
    138  CA         4.2400   38.9370   31.3140 C.3   367  LEU367      0.1561
    139  C          3.4060   38.6100   30.0790 C.2   367  LEU367      0.2260
    140  O          2.2110   38.3220   30.1790 O.2   367  LEU367     -0.2867
    141  CB         4.1160   40.4380   31.6120 C.3   367  LEU367      0.0270
    142  CG         4.5070   40.8980   33.0140 C.3   367  LEU367      0.0019
    143  CD1        4.4010   42.4140   33.1290 C.3   367  LEU367      0.0001
    144  CD2        3.5980   40.2270   34.0180 C.3   367  LEU367      0.0001
    145  N         -2.7810   39.2130   28.2590 N.3   404  MET404     -0.1230
    146  CA        -2.8980   38.6250   29.5870 C.3   404  MET404      0.1702
    147  C         -4.3260   38.2320   29.9550 C.2   404  MET404      0.2592
    148  O         -4.5420   37.1820   30.5620 O.2   404  MET404     -0.2718
    149  CB        -2.3440   39.5770   30.6520 C.3   404  MET404      0.0401
    150  CG        -0.9140   40.0140   30.3990 C.3   404  MET404      0.0596
    151  SD        -0.1240   40.6890   31.8700 S.3   404  MET404     -0.1393
    152  CE        -1.0260   42.1680   32.0610 C.3   404  MET404      0.0692
    153  N         -5.3010   39.0540   29.5710 N.am  405  PHE405     -0.1976
    154  CA        -6.6860   38.7700   29.9250 C.3   405  PHE405      0.1639
    155  C         -7.6620   38.6220   28.7600 C.2   405  PHE405      0.2290
    156  O         -8.3980   37.6380   28.6770 O.2   405  PHE405     -0.2864
    157  CB        -7.1880   39.8470   30.8870 C.3   405  PHE405      0.0560
    158  CG        -6.1920   40.2220   31.9580 C.ar  405  PHE405     -0.0200
    159  CD1       -5.2830   41.2600   31.7530 C.ar  405  PHE405     -0.0042
    160  CD2       -6.1750   39.5540   33.1760 C.ar  405  PHE405     -0.0042
    161  CE1       -4.3800   41.6280   32.7520 C.ar  405  PHE405     -0.0003
    162  CE2       -5.2750   39.9150   34.1800 C.ar  405  PHE405     -0.0003
    163  CZ        -4.3780   40.9540   33.9670 C.ar  405  PHE405     -0.0000
    164  N         -7.9080   47.4490   36.0110 N.3   447  HIS447     -0.1241
    165  CA        -7.8770   46.1710   36.6920 C.3   447  HIS447      0.1621
    166  C         -8.4880   46.2850   38.0910 C.2   447  HIS447      0.2264
    167  O         -8.1090   47.1520   38.8910 O.2   447  HIS447     -0.2867
    168  CB        -6.4310   45.6910   36.7820 C.3   447  HIS447      0.0745
    169  CG        -6.2860   44.2370   37.1040 C.ar  447  HIS447      0.0817
    170  ND1       -6.7420   43.2430   36.2650 N.ar  447  HIS447     -0.2268
    171  CD2       -5.6760   43.6080   38.1380 C.ar  447  HIS447      0.1154
    172  CE1       -6.4120   42.0650   36.7640 C.ar  447  HIS447      0.1986
    173  NE2       -5.7640   42.2570   37.8990 N.ar  447  HIS447     -0.2212
@<TRIPOS>BOND
     1   145   146    1
     2   156   155    2
     3   155   154    1
     4   153   154    1
     5   153   147   am
     6   146   147    1
     7   146   149    1
     8   154   157    1
     9   147   148    2
    10   139   140    2
    11   139   138    1
    12   150   149    1
    13   150   151    1
    14   157   158    1
    15   137   138    1
    16   138   141    1
    17    67    68    1
    18   141   142    1
    19    68    69    1
    20    68    71    1
    21   159   158   ar
    22   159   161   ar
    23   151   152    1
    24   158   160   ar
    25    69    70    2
    26    74    75    1
    27    72    71    1
    28   161   163   ar
    29    71    73    1
    30   142   143    1
    31   142   144    1
    32   160   162   ar
    33    75    78    1
    34    75    76    1
    35    78    79    1
    36    78    80    1
    37   163   162   ar
    38    76    81   am
    39    76    77    2
    40    81    82    1
    41   120   118    1
    42   164   165    1
    43   119   117    1
    44   117   118    1
    45   117   114    1
    46   170   172   ar
    47   170   169   ar
    48   135   136    1
    49   135   134    1
    50    83    82    1
    51    83    84    2
    52    82    85    1
    53   165   168    1
    54   165   166    1
    55   172   173   ar
    56   168   169    1
    57   115   114    1
    58   115   116    2
    59    85    86    1
    60   169   171   ar
    61   105   106    1
    62   114   113    1
    63   133   134    1
    64   133   130    1
    65   113   107   am
    66    86    87    1
    67    86    88    1
    68   173   171   ar
    69   132   131    2
    70   166   167    2
    71   131   130    1
    72   107   106    1
    73   107   108    2
    74   106   109    1
    75   130   129    1
    76   109   110    1
    77    59    58    2
    78   103   102    1
    79    97    98    1
    80   129   123   am
    81    57    58    1
    82    57    56    1
    83    57    60    1
    84    61    60    1
    85   102   104    1
    86   102   101    1
    87    58    62   am
    88    92    91    2
    89   100    99    2
    90   121   122    1
    91   110   112    1
    92   110   111    1
    93    98    99    1
    94    98   101    1
    95   123   122    1
    96   123   124    2
    97    62    63    1
    98    91    90    1
    99    63    64    1
   100    63    66    1
   101   122   125    1
   102   125   126    1
   103    64    65    2
   104    95    94    1
   105    38    37    1
   106    38    39    1
   107    90    89    1
   108    90    93    1
   109   126   127    1
   110   126   128    1
   111    40    39    2
   112    32    30   ar
   113    32    31   ar
   114    37    35   am
   115    94    93    1
   116    94    96    1
   117    30    28   ar
   118    31    29   ar
   119    35    34    1
   120    35    36    2
   121    33    34    1
   122    28    27   ar
   123    46    47    1
   124    46    45    1
   125    29    27   ar
   126    20    19    1
   127    47    48    1
   128    27    26    1
   129    45    42    1
   130    41    42    1
   131    21    19    1
   132    19    18    1
   133    42    43    1
   134    13    11    1
   135    26    23    1
   136    23    22    1
   137    23    24    1
   138    55    53    1
   139    18    15    1
   140    49    43   am
   141    49    50    1
   142    11    12    1
   143    11    10    1
   144    25    24    2
   145    43    44    2
   146    52    51    2
   147    15    16    1
   148    15    14    1
   149    17    16    2
   150     5     2    1
   151    54    53    1
   152    53    50    1
   153    14     8   am
   154    51    50    1
   155     9     8    2
   156    10     7    1
   157     4     3    2
   158     8     7    1
   159     2     3    1
   160     2     1    1
   161     7     6    1
