@<TRIPOS>MOLECULE
tmp/2dqzC02.pdb
 152 141 0 0 0
SMALL
GASTEIGER

@<TRIPOS>ATOM
      1  N         39.5200    5.6260   47.9470 N.3    77  LEU77      -0.1245
      2  CA        39.0460    4.2670   47.7460 C.3    77  LEU77       0.1561
      3  C         38.3120    4.1450   46.4100 C.2    77  LEU77       0.2260
      4  O         38.4240    3.1350   45.7260 O.2    77  LEU77      -0.2867
      5  CB        38.1040    3.8740   48.8790 C.3    77  LEU77       0.0270
      6  CG        37.4870    2.4730   48.7920 C.3    77  LEU77       0.0019
      7  CD1       38.5710    1.4100   48.9930 C.3    77  LEU77       0.0001
      8  CD2       36.4030    2.3400   49.8430 C.3    77  LEU77       0.0001
      9  N         39.4840    1.3520   43.4790 N.3    81  PHE81      -0.1241
     10  CA        38.6280    0.1960   43.2160 C.3    81  PHE81       0.1605
     11  C         37.7950    0.3350   41.9340 C.2    81  PHE81       0.2264
     12  O         37.3070   -0.6530   41.3890 O.2    81  PHE81      -0.2867
     13  CB        37.6750   -0.0370   44.4050 C.3    81  PHE81       0.0534
     14  CG        38.3170   -0.7020   45.6020 C.ar   81  PHE81      -0.0203
     15  CD1       39.6880   -0.9620   45.6320 C.ar   81  PHE81      -0.0042
     16  CD2       37.5350   -1.0920   46.6960 C.ar   81  PHE81      -0.0042
     17  CE1       40.2780   -1.6100   46.7240 C.ar   81  PHE81      -0.0003
     18  CE2       38.1070   -1.7420   47.7990 C.ar   81  PHE81      -0.0003
     19  CZ        39.4870   -1.9990   47.8110 C.ar   81  PHE81      -0.0000
     20  N         34.2210   -0.7440   52.4070 N.3   122  GLY122     -0.1210
     21  CA        34.8460    0.4720   52.8810 C.3   122  GLY122      0.1956
     22  C         34.7670    0.5920   54.4000 C.2   122  GLY122      0.2612
     23  O         34.6150    1.6940   54.9240 O.2   122  GLY122     -0.2717
     24  N         34.8490   -0.5390   55.1050 N.am  123  GLY123     -0.1956
     25  CA        34.8000   -0.5500   56.5640 C.3   123  GLY123      0.1869
     26  C         33.5500    0.0330   57.1990 C.2   123  GLY123      0.2309
     27  O         33.5400    0.3710   58.3840 O.2   123  GLY123     -0.2863
     28  N         33.1560    4.4080   54.5170 N.3   126  VAL126     -0.1245
     29  CA        33.2330    5.0800   53.2270 C.3   126  VAL126      0.1561
     30  C         32.8320    4.0980   52.1280 C.2   126  VAL126      0.2260
     31  O         32.6900    2.9020   52.3890 O.2   126  VAL126     -0.2867
     32  CB        34.6810    5.6080   52.9430 C.3   126  VAL126      0.0252
     33  CG1       35.0740    6.6510   54.0010 C.3   126  VAL126      0.0019
     34  CG2       35.6810    4.4400   52.9480 C.3   126  VAL126      0.0019
     35  N         34.8740   -7.0250   51.1190 N.3   201  SER201     -0.1202
     36  CA        35.2700   -6.3860   52.3780 C.3   201  SER201      0.2020
     37  C         34.0400   -6.1570   53.2830 C.2   201  SER201      0.2618
     38  O         33.4090   -7.1170   53.7320 O.2   201  SER201     -0.2717
     39  CB        35.9940   -5.0620   52.0600 C.3   201  SER201      0.2103
     40  OG        36.8620   -4.6320   53.1040 O.3   201  SER201     -0.2182
     41  N         33.6960   -4.9020   53.5550 N.am  202  ALA202     -0.1979
     42  CA        32.5290   -4.6160   54.3880 C.3   202  ALA202      0.1597
     43  C         31.2810   -5.1070   53.6530 C.2   202  ALA202      0.2287
     44  O         30.2660   -5.4410   54.2720 O.2   202  ALA202     -0.2864
     45  CB        32.4300   -3.1150   54.6700 C.3   202  ALA202      0.0319
     46  N         34.7420  -11.4490   60.9450 N.3   232  THR232     -0.1218
     47  CA        35.7940  -10.4390   60.8480 C.3   232  THR232      0.1862
     48  C         35.4690   -9.4440   61.9790 C.2   232  THR232      0.2287
     49  O         34.8420   -8.4050   61.7650 O.2   232  THR232     -0.2866
     50  CB        35.7690   -9.7280   59.4470 C.3   232  THR232      0.1770
     51  OG1       35.9520  -10.7000   58.4080 O.3   232  THR232     -0.2211
     52  CG2       36.8700   -8.6800   59.3340 C.3   232  THR232      0.0375
     53  N         36.6400   -6.9810   63.5460 N.3   234  VAL234     -0.1231
     54  CA        36.7750   -5.5430   63.4610 C.3   234  VAL234      0.1692
     55  C         35.4470   -4.8590   63.1460 C.2   234  VAL234      0.2591
     56  O         35.1770   -3.7540   63.6190 O.2   234  VAL234     -0.2718
     57  CB        37.8050   -5.1570   62.3980 C.3   234  VAL234      0.0266
     58  CG1       37.2300   -5.3570   61.0110 C.3   234  VAL234      0.0020
     59  CG2       38.2490   -3.7340   62.6120 C.3   234  VAL234      0.0020
     60  N         34.6100   -5.5420   62.3690 N.am  235  LEU235     -0.1980
     61  CA        33.3230   -5.0060   61.9500 C.3   235  LEU235      0.1596
     62  C         32.1240   -5.3200   62.8390 C.2   235  LEU235      0.2287
     63  O         31.0270   -4.8280   62.5860 O.2   235  LEU235     -0.2864
     64  CB        33.0180   -5.4760   60.5260 C.3   235  LEU235      0.0297
     65  CG        34.0570   -5.1570   59.4540 C.3   235  LEU235      0.0022
     66  CD1       33.5650   -5.6360   58.0970 C.3   235  LEU235      0.0001
     67  CD2       34.3270   -3.6630   59.4300 C.3   235  LEU235      0.0001
     68  N         39.2930    5.1380   60.4360 N.3   284  LEU284     -0.1245
     69  CA        40.1540    4.1790   59.7450 C.3   284  LEU284      0.1561
     70  C         41.6400    4.5150   59.6150 C.2   284  LEU284      0.2260
     71  O         42.1760    4.6810   58.5190 O.2   284  LEU284     -0.2867
     72  CB        39.5500    3.8610   58.3690 C.3   284  LEU284      0.0270
     73  CG        38.1960    3.1350   58.4340 C.3   284  LEU284      0.0019
     74  CD1       37.6690    2.9120   57.0290 C.3   284  LEU284      0.0001
     75  CD2       38.3440    1.8010   59.1590 C.3   284  LEU284      0.0001
     76  N         36.2240    1.8210   64.1970 N.3   298  LEU298     -0.1245
     77  CA        35.0240    2.2620   63.4900 C.3   298  LEU298      0.1561
     78  C         33.7270    1.8860   64.2200 C.2   298  LEU298      0.2260
     79  O         33.7410    1.3350   65.3310 O.2   298  LEU298     -0.2867
     80  CB        35.0220    1.6730   62.0690 C.3   298  LEU298      0.0270
     81  CG        35.2330    0.1520   61.9440 C.3   298  LEU298      0.0019
     82  CD1       33.8990   -0.5480   62.1210 C.3   298  LEU298      0.0001
     83  CD2       35.8400   -0.1960   60.5820 C.3   298  LEU298      0.0001
     84  N         47.1370   -2.2820   50.3380 N.3   338  LEU338     -0.1231
     85  CA        45.9400   -1.4610   50.5030 C.3   338  LEU338      0.1693
     86  C         45.5810   -1.0320   51.9150 C.2   338  LEU338      0.2591
     87  O         45.7150    0.1410   52.2630 O.2   338  LEU338     -0.2718
     88  CB        44.7220   -2.1500   49.8890 C.3   338  LEU338      0.0284
     89  CG        43.5250   -1.1990   49.7230 C.3   338  LEU338      0.0019
     90  CD1       43.5320   -0.6070   48.3210 C.3   338  LEU338      0.0001
     91  CD2       42.2280   -1.9540   49.9520 C.3   338  LEU338      0.0001
     92  N         45.1100   -1.9700   52.7270 N.am  339  ILE339     -0.1980
     93  CA        44.7090   -1.6280   54.0840 C.3   339  ILE339      0.1595
     94  C         45.7860   -0.9340   54.9090 C.2   339  ILE339      0.2287
     95  O         45.5280    0.1000   55.5090 O.2   339  ILE339     -0.2864
     96  CB        44.2180   -2.8570   54.8580 C.3   339  ILE339      0.0276
     97  CG1       43.1000   -3.5580   54.0890 C.3   339  ILE339      0.0022
     98  CG2       43.7000   -2.4150   56.2080 C.3   339  ILE339      0.0022
     99  CD1       42.5330   -4.7550   54.8120 C.3   339  ILE339      0.0001
    100  N         46.2930    2.5790   53.7860 N.3   342  LEU342     -0.1231
    101  CA        45.1640    3.4340   54.1620 C.3   342  LEU342      0.1693
    102  C         45.1140    3.7840   55.6440 C.2   342  LEU342      0.2591
    103  O         44.7620    4.9070   56.0080 O.2   342  LEU342     -0.2718
    104  CB        43.8420    2.7800   53.7480 C.3   342  LEU342      0.0284
    105  CG        43.5440    2.8930   52.2530 C.3   342  LEU342      0.0019
    106  CD1       42.2540    2.1700   51.8970 C.3   342  LEU342      0.0001
    107  CD2       43.4460    4.3760   51.8910 C.3   342  LEU342      0.0001
    108  N         45.4670    2.8220   56.4910 N.am  343  MET343     -0.1979
    109  CA        45.4560    3.0280   57.9350 C.3   343  MET343      0.1605
    110  C         46.7500    3.6230   58.4710 C.2   343  MET343      0.2287
    111  O         46.9040    3.8160   59.6790 O.2   343  MET343     -0.2864
    112  CB        45.1500    1.7150   58.6540 C.3   343  MET343      0.0413
    113  CG        43.7030    1.3040   58.5150 C.3   343  MET343      0.0598
    114  SD        43.2610   -0.1230   59.4930 S.3   343  MET343     -0.1393
    115  CE        43.1770    0.6030   61.1730 C.3   343  MET343      0.0692
    116  N         42.1100   -4.4910   65.5160 N.3   367  LEU367     -0.1245
    117  CA        41.9600   -5.2390   64.2730 C.3   367  LEU367      0.1561
    118  C         41.9240   -6.7400   64.4910 C.2   367  LEU367      0.2260
    119  O         41.0100   -7.4260   64.0410 O.2   367  LEU367     -0.2867
    120  CB        43.1050   -4.9220   63.3160 C.3   367  LEU367      0.0270
    121  CG        43.0520   -3.5890   62.5890 C.3   367  LEU367      0.0019
    122  CD1       44.2790   -3.4550   61.7100 C.3   367  LEU367      0.0001
    123  CD2       41.7900   -3.5120   61.7560 C.3   367  LEU367      0.0001
    124  N         42.1360  -11.5810   60.2550 N.3   404  MET404     -0.1230
    125  CA        41.0020  -10.7880   59.7850 C.3   404  MET404      0.1702
    126  C         40.1650  -11.4470   58.6880 C.2   404  MET404      0.2592
    127  O         38.9610  -11.2220   58.6070 O.2   404  MET404     -0.2718
    128  CB        41.4650   -9.4200   59.2770 C.3   404  MET404      0.0401
    129  CG        42.3570   -8.6700   60.2410 C.3   404  MET404      0.0596
    130  SD        42.3670   -6.9410   59.8680 S.3   404  MET404     -0.1393
    131  CE        43.1760   -6.9930   58.3530 C.3   404  MET404      0.0692
    132  N         40.7890  -12.2600   57.8450 N.am  405  PHE405     -0.1976
    133  CA        40.0480  -12.8850   56.7660 C.3   405  PHE405      0.1639
    134  C         40.2570  -14.3880   56.5840 C.2   405  PHE405      0.2290
    135  O         39.2940  -15.1360   56.4540 O.2   405  PHE405     -0.2864
    136  CB        40.3660  -12.1770   55.4560 C.3   405  PHE405      0.0560
    137  CG        40.3360  -10.6710   55.5420 C.ar  405  PHE405     -0.0200
    138  CD1       41.4750   -9.9530   55.9000 C.ar  405  PHE405     -0.0042
    139  CD2       39.1830   -9.9640   55.2050 C.ar  405  PHE405     -0.0042
    140  CE1       41.4670   -8.5530   55.9120 C.ar  405  PHE405     -0.0003
    141  CE2       39.1660   -8.5590   55.2150 C.ar  405  PHE405     -0.0003
    142  CZ        40.3100   -7.8560   55.5670 C.ar  405  PHE405     -0.0000
    143  N         44.3170   -6.8630   48.9400 N.3   447  HIS447     -0.1241
    144  CA        42.9150   -6.6070   49.2150 C.3   447  HIS447      0.1621
    145  C         42.2520   -5.8610   48.0430 C.2   447  HIS447      0.2264
    146  O         42.7500   -4.8270   47.5940 O.2   447  HIS447     -0.2867
    147  CB        42.7900   -5.7920   50.5060 C.3   447  HIS447      0.0745
    148  CG        41.4380   -5.8700   51.1420 C.ar  447  HIS447      0.0817
    149  ND1       40.8860   -7.0580   51.5720 N.ar  447  HIS447     -0.2268
    150  CD2       40.5230   -4.9090   51.4160 C.ar  447  HIS447      0.1154
    151  CE1       39.6910   -6.8240   52.0860 C.ar  447  HIS447      0.1986
    152  NE2       39.4470   -5.5290   52.0020 N.ar  447  HIS447     -0.2212
@<TRIPOS>BOND
     1    12    11    2
     2    11    10    1
     3    10     9    1
     4    10    13    1
     5    13    14    1
     6    14    15   ar
     7    14    16   ar
     8    15    17   ar
     9     4     3    2
    10     3     2    1
    11    16    18   ar
    12    17    19   ar
    13   146   145    2
    14     2     1    1
    15     2     5    1
    16    18    19   ar
    17   145   144    1
    18    90    89    1
    19     6     5    1
    20     6     7    1
    21     6     8    1
    22   143   144    1
    23   144   147    1
    24    89    88    1
    25    89    91    1
    26    88    85    1
    27    84    85    1
    28    85    86    1
    29   147   148    1
    30    35    36    1
    31   148   150   ar
    32   148   149   ar
    33   150   152   ar
    34   149   151   ar
    35   107   105    1
    36   106   105    1
    37    86    87    2
    38    86    92   am
    39   152   151   ar
    40    39    36    1
    41    39    40    1
    42    30    31    2
    43    30    29    1
    44   105   104    1
    45    36    37    1
    46    20    21    1
    47    92    93    1
    48    21    22    1
    49    32    34    1
    50    32    29    1
    51    32    33    1
    52    29    28    1
    53    37    41   am
    54    37    38    2
    55    41    42    1
    56    43    44    2
    57    43    42    1
    58   104   101    1
    59   100   101    1
    60    93    96    1
    61    93    94    1
    62    97    99    1
    63    97    96    1
    64   101   102    1
    65    42    45    1
    66    22    23    2
    67    22    24   am
    68    96    98    1
    69    94    95    2
    70    24    25    1
    71   139   141   ar
    72   139   137   ar
    73   141   142   ar
    74   136   137    1
    75   136   133    1
    76   137   138   ar
    77   142   140   ar
    78   102   103    2
    79   102   108   am
    80   138   140   ar
    81   135   134    2
    82   108   109    1
    83    25    26    1
    84   134   133    1
    85   133   132    1
    86    74    73    1
    87    26    27    2
    88   132   126   am
    89   109   110    1
    90   109   112    1
    91    66    65    1
    92   131   130    1
    93    72    73    1
    94    72    69    1
    95    51    50    1
    96    73    75    1
    97   110   111    2
    98   113   112    1
    99   113   114    1
   100    71    70    2
   101   127   126    2
   102   126   125    1
   103   128   125    1
   104   128   129    1
   105    52    50    1
   106    67    65    1
   107    50    47    1
   108    65    64    1
   109   114   115    1
   110    70    69    1
   111    69    68    1
   112   125   124    1
   113   130   129    1
   114    64    61    1
   115    83    81    1
   116    47    46    1
   117    47    48    1
   118    58    57    1
   119   122   121    1
   120   123   121    1
   121    49    48    2
   122    81    80    1
   123    81    82    1
   124    61    60    1
   125    61    62    1
   126    80    77    1
   127    60    55   am
   128    57    59    1
   129    57    54    1
   130    63    62    2
   131   121   120    1
   132    55    54    1
   133    55    56    2
   134   120   117    1
   135    54    53    1
   136    77    76    1
   137    77    78    1
   138   119   118    2
   139    78    79    2
   140   117   118    1
   141   117   116    1
