@<TRIPOS>MOLECULE
tmp/2dr0C03.pdb
 126 122 0 0 0
SMALL
GASTEIGER

@<TRIPOS>ATOM
      1  N         48.6600   -7.2510   52.1730 N.3   336  GLY336     -0.1210
      2  CA        49.8220   -6.9740   51.3450 C.3   336  GLY336      0.1956
      3  C         50.2910   -5.5280   51.2420 C.2   336  GLY336      0.2611
      4  O         51.4820   -5.2350   51.4180 O.2   336  GLY336     -0.2717
      5  N         49.3680   -4.6180   50.9490 N.am  337  TRP337     -0.1976
      6  CA        49.7270   -3.2120   50.8140 C.3   337  TRP337      0.1640
      7  C         48.5580   -2.2500   51.0180 C.2   337  TRP337      0.2290
      8  O         48.6270   -1.3510   51.8580 O.2   337  TRP337     -0.2864
      9  CB        50.3370   -2.9740   49.4350 C.3   337  TRP337      0.0576
     10  CG        50.5900   -1.5390   49.1460 C.ar  337  TRP337      0.0006
     11  CD1       51.5930   -0.7650   49.6510 C.ar  337  TRP337      0.0946
     12  CD2       49.8060   -0.6870   48.2970 C.ar  337  TRP337      0.0152
     13  NE1       51.4830    0.5230   49.1690 N.ar  337  TRP337     -0.2442
     14  CE2       50.3920    0.5980   48.3410 C.ar  337  TRP337      0.0810
     15  CE3       48.6590   -0.8820   47.5130 C.ar  337  TRP337      0.0012
     16  CZ2       49.8780    1.6820   47.6170 C.ar  337  TRP337      0.0191
     17  CZ3       48.1480    0.1930   46.7950 C.ar  337  TRP337      0.0001
     18  CH2       48.7570    1.4610   46.8570 C.ar  337  TRP337      0.0015
     19  N         47.2900   -1.7070   54.9220 N.3   340  PRO340     -0.2102
     20  CA        48.2990   -1.0290   55.7380 C.3   340  PRO340      0.1504
     21  C         48.5210    0.4170   55.2910 C.2   340  PRO340      0.2575
     22  O         48.5440    1.3390   56.1150 O.2   340  PRO340     -0.2718
     23  CB        49.5410   -1.8850   55.5250 C.3   340  PRO340      0.0282
     24  CG        48.9880   -3.2220   55.3160 C.3   340  PRO340      0.0208
     25  CD        47.8270   -2.9660   54.3910 C.3   340  PRO340      0.0893
     26  N         48.6930    0.6030   53.9850 N.am  341  MET341     -0.1980
     27  CA        48.9100    1.9250   53.4090 C.3   341  MET341      0.1605
     28  C         47.7860    2.8990   53.7500 C.2   341  MET341      0.2287
     29  O         48.0260    4.0750   54.0400 O.2   341  MET341     -0.2864
     30  CB        49.0350    1.8090   51.8950 C.3   341  MET341      0.0413
     31  CG        49.0340    3.1400   51.1730 C.3   341  MET341      0.0598
     32  SD        47.3800    3.7800   50.7720 S.3   341  MET341     -0.1393
     33  CE        47.7890    4.7020   49.2110 C.3   341  MET341      0.0692
     34  N         50.0840    2.5200   58.2770 N.3   345  TYR345     -0.1241
     35  CA        50.8360    1.5640   59.0590 C.3   345  TYR345      0.1605
     36  C         52.3140    1.9280   59.0990 C.2   345  TYR345      0.2264
     37  O         52.9160    2.2260   58.0700 O.2   345  TYR345     -0.2867
     38  CB        50.6660    0.1710   58.4760 C.3   345  TYR345      0.0534
     39  CG        50.3030   -0.8550   59.5150 C.ar  345  TYR345     -0.0201
     40  CD1       49.0690   -0.8080   60.1670 C.ar  345  TYR345     -0.0009
     41  CD2       51.1990   -1.8620   59.8690 C.ar  345  TYR345     -0.0009
     42  CE1       48.7340   -1.7390   61.1470 C.ar  345  TYR345      0.0417
     43  CE2       50.8740   -2.7980   60.8500 C.ar  345  TYR345      0.0417
     44  CZ        49.6380   -2.7270   61.4830 C.ar  345  TYR345      0.1957
     45  OH        49.2980   -3.6430   62.4450 O.3   345  TYR345     -0.2866
     46  N         54.8750    0.3230   59.1630 N.3   347  LEU347     -0.1231
     47  CA        55.7780   -0.5730   58.4500 C.3   347  LEU347      0.1693
     48  C         56.4190    0.0110   57.1930 C.2   347  LEU347      0.2593
     49  O         56.6290   -0.7140   56.2210 O.2   347  LEU347     -0.2718
     50  CB        55.0510   -1.8590   58.0780 C.3   347  LEU347      0.0284
     51  CG        54.7580   -2.7850   59.2520 C.3   347  LEU347      0.0019
     52  CD1       53.9520   -3.9680   58.7390 C.3   347  LEU347      0.0001
     53  CD2       56.0660   -3.2460   59.9080 C.3   347  LEU347      0.0001
     54  N         56.7390    1.3060   57.2120 N.am  348  SER348     -0.1938
     55  CA        57.3650    1.9640   56.0620 C.3   348  SER348      0.2055
     56  C         58.8900    1.8070   56.0770 C.2   348  SER348      0.2643
     57  O         59.6130    2.5810   55.4470 O.2   348  SER348     -0.2714
     58  CB        56.9940    3.4480   56.0470 C.3   348  SER348      0.2130
     59  OG        57.4830    4.1050   57.2010 O.3   348  SER348     -0.2179
     60  N         59.3630    0.7900   56.7930 N.am  349  GLU349     -0.1963
     61  CA        60.7900    0.5090   56.9150 C.3   349  GLU349      0.1733
     62  C         61.2030   -0.6770   56.0500 C.2   349  GLU349      0.2616
     63  O         62.3900   -0.8860   55.7980 O.2   349  GLU349     -0.2715
     64  CB        61.1460    0.2130   58.3770 C.3   349  GLU349      0.0429
     65  CG        60.6650    1.2750   59.3570 C.3   349  GLU349      0.1163
     66  CD        61.2150    2.6560   59.0350 C.2   349  GLU349      0.3649
     67  OE1       62.4330    2.8780   59.2320 O.co2 349  GLU349     -0.2457
     68  OE2       60.4270    3.5130   58.5760 O.co2 349  GLU349     -0.2457
     69  N         60.2200   -1.4540   55.6040 N.am  350  GLY350     -0.1955
     70  CA        60.5070   -2.6090   54.7730 C.3   350  GLY350      0.1869
     71  C         61.1950   -3.7260   55.5320 C.2   350  GLY350      0.2309
     72  O         61.9020   -4.5380   54.9400 O.2   350  GLY350     -0.2863
     73  N         58.6980   -9.0290   58.4270 N.3   393  LYS393     -0.1231
     74  CA        57.7310   -7.9990   58.0720 C.3   393  LYS393      0.1693
     75  C         56.6330   -8.6450   57.2350 C.2   393  LYS393      0.2592
     76  O         55.4500   -8.3950   57.4570 O.2   393  LYS393     -0.2718
     77  CB        58.3870   -6.8850   57.2570 C.3   393  LYS393      0.0285
     78  CG        57.4480   -5.7200   56.9450 C.3   393  LYS393      0.0035
     79  CD        57.6000   -5.2250   55.5050 C.3   393  LYS393      0.0206
     80  CE        57.1430   -6.2820   54.5000 C.3   393  LYS393      0.1093
     81  NZ        57.4750   -5.9420   53.0890 N.3   393  LYS393     -0.1314
     82  N         57.0240   -9.4780   56.2720 N.am  394  ASP394     -0.1974
     83  CA        56.0450  -10.1480   55.4220 C.3   394  ASP394      0.1709
     84  C         55.2400  -11.1790   56.2060 C.2   394  ASP394      0.2293
     85  O         54.0370  -11.3190   55.9950 O.2   394  ASP394     -0.2864
     86  CB        56.7290  -10.8100   54.2260 C.3   394  ASP394      0.1436
     87  CG        57.2720   -9.8020   53.2430 C.2   394  ASP394      0.3671
     88  OD1       56.5630   -8.8110   52.9650 O.co2 394  ASP394     -0.2456
     89  OD2       58.3980  -10.0010   52.7420 O.co2 394  ASP394     -0.2456
     90  N         52.6130   -9.5330   58.2910 N.3   397  LEU397     -0.1245
     91  CA        51.4360   -9.1820   57.5230 C.3   397  LEU397      0.1561
     92  C         50.5430  -10.4130   57.4180 C.2   397  LEU397      0.2260
     93  O         49.3650  -10.3510   57.7490 O.2   397  LEU397     -0.2867
     94  CB        51.8350   -8.6800   56.1340 C.3   397  LEU397      0.0270
     95  CG        52.7100   -7.4210   56.1020 C.3   397  LEU397      0.0019
     96  CD1       52.9740   -7.0120   54.6630 C.3   397  LEU397      0.0001
     97  CD2       52.0310   -6.3030   56.8360 C.3   397  LEU397      0.0001
     98  N         52.2920    2.9250   43.4800 N.3   438  MET438     -0.1245
     99  CA        52.9230    2.7930   44.7870 C.3   438  MET438      0.1570
    100  C         52.8360    1.3840   45.3870 C.2   438  MET438      0.2261
    101  O         53.2280    1.1660   46.5390 O.2   438  MET438     -0.2867
    102  CB        52.3010    3.8060   45.7460 C.3   438  MET438      0.0387
    103  CG        52.4890    5.2450   45.3120 C.3   438  MET438      0.0595
    104  SD        51.1670    6.3130   45.9150 S.3   438  MET438     -0.1393
    105  CE        50.0790    6.3740   44.4370 C.3   438  MET438      0.0692
    106  N         54.1540   -2.4030   45.3720 N.3   440  PRO440     -0.2116
    107  CA        55.2950   -3.2200   44.9400 C.3   440  PRO440      0.1372
    108  C         54.8480   -4.3960   44.0770 C.2   440  PRO440      0.2244
    109  O         53.7830   -4.9700   44.3160 O.2   440  PRO440     -0.2868
    110  CB        55.9430   -3.6470   46.2620 C.3   440  PRO440      0.0268
    111  CG        54.8240   -3.5750   47.2530 C.3   440  PRO440      0.0207
    112  CD        54.0850   -2.3350   46.8430 C.3   440  PRO440      0.0892
    113  N         55.8170   -7.2850   44.0240 N.3   442  THR442     -0.1203
    114  CA        55.9030   -8.5570   44.7260 C.3   442  THR442      0.1994
    115  C         54.6350   -8.8740   45.5170 C.2   442  THR442      0.2617
    116  O         54.4950   -9.9520   46.0880 O.2   442  THR442     -0.2717
    117  CB        57.0960   -8.5530   45.6770 C.3   442  THR442      0.1784
    118  OG1       57.1050   -7.3220   46.4150 O.3   442  THR442     -0.2211
    119  CG2       58.3960   -8.7020   44.8910 C.3   442  THR442      0.0376
    120  N         53.7100   -7.9250   45.5540 N.am  443  VAL443     -0.1979
    121  CA        52.4550   -8.1160   46.2670 C.3   443  VAL443      0.1595
    122  C         51.4090   -8.7020   45.3100 C.2   443  VAL443      0.2287
    123  O         50.8860   -8.0050   44.4360 O.2   443  VAL443     -0.2864
    124  CB        51.9300   -6.7740   46.8380 C.3   443  VAL443      0.0276
    125  CG1       50.6700   -7.0040   47.6230 C.3   443  VAL443      0.0022
    126  CG2       52.9730   -6.1420   47.7280 C.3   443  VAL443      0.0022
@<TRIPOS>BOND
     1    98    99    1
     2   113   114    1
     3   108   109    2
     4   108   107    1
     5   123   122    2
     6   105   104    1
     7   114   115    1
     8   114   117    1
     9    99   100    1
    10    99   102    1
    11   119   117    1
    12   107   106    1
    13   107   110    1
    14   122   121    1
    15   103   102    1
    16   103   104    1
    17   106   112    1
    18   100   101    2
    19   115   120   am
    20   115   116    2
    21   120   121    1
    22   117   118    1
    23   110   111    1
    24   121   124    1
    25    17    18   ar
    26    17    15   ar
    27   124   125    1
    28   124   126    1
    29   112   111    1
    30    18    16   ar
    31    15    12   ar
    32    16    14   ar
    33    12    14   ar
    34    12    10   ar
    35    14    13   ar
    36    10     9    1
    37    10    11   ar
    38    13    11   ar
    39    33    32    1
    40     9     6    1
    41    32    31    1
    42     6     5    1
    43     6     7    1
    44     5     3   am
    45     7     8    2
    46    31    30    1
    47     3     2    1
    48     3     4    2
    49     2     1    1
    50    30    27    1
    51    89    87   ar
    52    88    87   ar
    53    81    80    1
    54    87    86    1
    55    27    28    1
    56    27    26    1
    57    28    29    2
    58    26    21   am
    59    86    83    1
    60    25    19    1
    61    25    24    1
    62    80    79    1
    63    96    95    1
    64    70    71    1
    65    70    69    1
    66    19    20    1
    67    72    71    2
    68    21    20    1
    69    21    22    2
    70    24    23    1
    71    83    84    1
    72    83    82    1
    73    57    56    2
    74    79    78    1
    75    23    20    1
    76    69    62   am
    77    63    62    2
    78    85    84    2
    79    58    55    1
    80    58    59    1
    81    62    61    1
    82    55    56    1
    83    55    54    1
    84    56    60   am
    85    95    94    1
    86    95    97    1
    87    94    91    1
    88    49    48    2
    89    82    75   am
    90    60    61    1
    91    61    64    1
    92    78    77    1
    93    48    54   am
    94    48    47    1
    95    75    76    2
    96    75    74    1
    97    77    74    1
    98    92    91    1
    99    92    93    2
   100    91    90    1
   101    37    36    2
   102    74    73    1
   103    50    47    1
   104    50    51    1
   105    34    35    1
   106    64    65    1
   107    47    46    1
   108    38    35    1
   109    38    39    1
   110    68    66   ar
   111    52    51    1
   112    66    67   ar
   113    66    65    1
   114    35    36    1
   115    51    53    1
   116    39    41   ar
   117    39    40   ar
   118    41    43   ar
   119    40    42   ar
   120    43    44   ar
   121    42    44   ar
   122    44    45    1
