@<TRIPOS>MOLECULE
tmp/2dr1A00.pdb
 130 119 0 0 0
SMALL
GASTEIGER

@<TRIPOS>ATOM
      1  N        127.8230   47.2050   -5.5520 N.3    22  ALA22      -0.1245
      2  CA       126.6550   47.4890   -4.7290 C.3    22  ALA22       0.1562
      3  C        126.1240   46.2560   -3.9990 C.2    22  ALA22       0.2260
      4  O        125.1120   46.3320   -3.3020 O.2    22  ALA22      -0.2867
      5  CB       125.5540   48.0980   -5.6000 C.3    22  ALA22       0.0290
      6  N        117.8420   35.2180    0.2430 N.3    75  SER75      -0.1202
      7  CA       118.5130   36.5070    0.1320 C.3    75  SER75       0.2020
      8  C        117.6430   37.4280    1.0030 C.2    75  SER75       0.2619
      9  O        116.5870   37.0030    1.4840 O.2    75  SER75      -0.2717
     10  CB       118.5610   36.9840   -1.3290 C.3    75  SER75       0.2103
     11  OG       117.2830   37.3600   -1.8130 O.3    75  SER75      -0.2182
     12  N        118.0720   38.6680    1.2140 N.am   76  GLY76      -0.1942
     13  CA       117.3160   39.5760    2.0660 C.3    76  GLY76       0.2014
     14  C        115.8470   39.7660    1.7220 C.2    76  GLY76       0.2639
     15  O        115.0100   39.9180    2.6160 O.2    76  GLY76      -0.2714
     16  N        115.5340   39.7480    0.4310 N.am   77  THR77      -0.1950
     17  CA       114.1620   39.9350   -0.0330 C.3    77  THR77       0.1897
     18  C        113.2390   38.8420    0.5130 C.2    77  THR77       0.2313
     19  O        112.0190   39.0190    0.5830 O.2    77  THR77      -0.2863
     20  CB       114.1210   39.9610   -1.5800 C.3    77  THR77       0.1794
     21  OG1      114.9750   41.0130   -2.0540 O.3    77  THR77      -0.2208
     22  CG2      112.7060   40.2110   -2.0840 C.3    77  THR77       0.0378
     23  N        111.7990   40.2340    3.3820 N.3    80  MET80      -0.1245
     24  CA       110.9370   41.3390    2.9660 C.3    80  MET80       0.1570
     25  C        109.5510   40.7090    2.7650 C.2    80  MET80       0.2261
     26  O        108.5410   41.2110    3.2650 O.2    80  MET80      -0.2867
     27  CB       111.4400   41.9430    1.6450 C.3    80  MET80       0.0387
     28  CG       110.6500   43.1620    1.1530 C.3    80  MET80       0.0595
     29  SD       111.3220   43.8680   -0.3630 S.3    80  MET80      -0.1393
     30  CE       112.6760   44.8790    0.2970 C.3    80  MET80       0.0692
     31  N        114.5420   50.1340   -4.2920 N.3   102  PHE102     -0.1241
     32  CA       114.1720   49.0980   -3.3410 C.3   102  PHE102      0.1605
     33  C        112.9220   49.3990   -2.5390 C.2   102  PHE102      0.2264
     34  O        112.3130   48.4940   -1.9570 O.2   102  PHE102     -0.2867
     35  CB       115.3830   48.7700   -2.4770 C.3   102  PHE102      0.0534
     36  CG       116.4910   48.1300   -3.2690 C.ar  102  PHE102     -0.0203
     37  CD1      116.3320   46.8450   -3.7780 C.ar  102  PHE102     -0.0042
     38  CD2      117.6470   48.8370   -3.5850 C.ar  102  PHE102     -0.0042
     39  CE1      117.3040   46.2720   -4.5980 C.ar  102  PHE102     -0.0003
     40  CE2      118.6240   48.2720   -4.4050 C.ar  102  PHE102     -0.0003
     41  CZ       118.4500   46.9870   -4.9130 C.ar  102  PHE102     -0.0000
     42  N        110.5330   47.9440   -4.7100 N.3   105  ARG105     -0.1245
     43  CA       110.4640   46.4930   -4.5940 C.3   105  ARG105      0.1563
     44  C        109.5750   46.0950   -3.4170 C.2   105  ARG105      0.2260
     45  O        108.7980   45.1460   -3.5180 O.2   105  ARG105     -0.2867
     46  CB       111.8480   45.8660   -4.4000 C.3   105  ARG105      0.0307
     47  CG       111.7520   44.3520   -4.1860 C.3   105  ARG105      0.0489
     48  CD       113.1000   43.6690   -4.0920 C.3   105  ARG105      0.2205
     49  NE       113.8370   43.7230   -5.3520 N.pl3 105  ARG105     -0.0865
     50  CZ       114.9430   43.0280   -5.5900 C.cat 105  ARG105      0.5346
     51  NH1      115.4300   42.2270   -4.6540 N.pl3 105  ARG105      0.1354
     52  NH2      115.5660   43.1370   -6.7580 N.pl3 105  ARG105      0.1354
     53  N        113.0850   52.0150    3.9500 N.3   149  THR149     -0.1218
     54  CA       114.3020   51.4890    3.3480 C.3   149  THR149      0.1862
     55  C        115.3590   52.2900    4.0950 C.2   149  THR149      0.2287
     56  O        115.5270   53.4820    3.8350 O.2   149  THR149     -0.2866
     57  CB       114.3740   51.8150    1.8410 C.3   149  THR149      0.1770
     58  OG1      113.1880   51.3390    1.1940 O.3   149  THR149     -0.2211
     59  CG2      115.5900   51.1450    1.2040 C.3   149  THR149      0.0375
     60  N        118.7110   52.1820    4.0760 N.3   151  ASN151     -0.1240
     61  CA       119.7300   52.6650    3.1560 C.3   151  ASN151      0.1653
     62  C        119.2670   52.3320    1.7400 C.2   151  ASN151      0.2266
     63  O        119.2030   51.1610    1.3620 O.2   151  ASN151     -0.2867
     64  CB       121.0780   51.9930    3.4530 C.3   151  ASN151      0.1155
     65  CG       122.2310   52.6400    2.7070 C.2   151  ASN151      0.2627
     66  OD1      122.8130   53.6350    3.1590 O.2   151  ASN151     -0.2716
     67  ND2      122.5790   52.0690    1.5660 N.am  151  ASN151     -0.0877
     68  N        120.0040   51.7790   -1.6480 N.3   153  THR153     -0.1218
     69  CA       121.1680   51.4630   -2.4560 C.3   153  THR153      0.1862
     70  C        121.2050   52.0960   -3.8380 C.2   153  THR153      0.2287
     71  O        122.2820   52.2830   -4.3970 O.2   153  THR153     -0.2866
     72  CB       121.2930   49.9430   -2.6000 C.3   153  THR153      0.1770
     73  OG1      120.9980   49.3430   -1.3340 O.3   153  THR153     -0.2211
     74  CG2      122.7020   49.5540   -3.0020 C.3   153  THR153      0.0375
     75  N        113.9130   47.6870    5.8280 N.3   178  ASP178     -0.1239
     76  CA       114.7540   47.0100    4.8500 C.3   178  ASP178      0.1674
     77  C        116.1410   47.5810    5.1360 C.2   178  ASP178      0.2266
     78  O        116.4280   48.7290    4.7940 O.2   178  ASP178     -0.2867
     79  CB       114.3180   47.3720    3.4200 C.3   178  ASP178      0.1410
     80  CG       115.3220   46.9250    2.3610 C.2   178  ASP178      0.3668
     81  OD1      116.4570   46.5560    2.7240 O.co2 178  ASP178     -0.2456
     82  OD2      114.9810   46.9550    1.1570 O.co2 178  ASP178     -0.2456
     83  N        119.0090   45.9420    4.1830 N.3   180  VAL180     -0.1231
     84  CA       119.9190   45.0960    3.4210 C.3   180  VAL180      0.1692
     85  C        121.2790   45.7400    3.1600 C.2   180  VAL180      0.2592
     86  O        122.3050   45.0650    3.2640 O.2   180  VAL180     -0.2718
     87  CB       119.2910   44.6510    2.0870 C.3   180  VAL180      0.0266
     88  CG1      120.3050   43.8530    1.2840 C.3   180  VAL180      0.0020
     89  CG2      118.0550   43.7790    2.3630 C.3   180  VAL180      0.0020
     90  N        121.3010   47.0270    2.8210 N.am  181  SER181     -0.1952
     91  CA       122.5770   47.7010    2.5790 C.3   181  SER181      0.1924
     92  C        122.9370   48.6420    3.7310 C.2   181  SER181      0.2314
     93  O        123.7920   49.5230    3.5870 O.2   181  SER181     -0.2863
     94  CB       122.5460   48.4840    1.2560 C.3   181  SER181      0.2116
     95  OG       121.6090   49.5520    1.2910 O.3   181  SER181     -0.2180
     96  N        115.6820   43.5650    8.4530 N.3   199  PHE199     -0.1241
     97  CA       116.3240   42.4750    7.7450 C.3   199  PHE199      0.1605
     98  C        117.4660   42.9480    6.8750 C.2   199  PHE199      0.2264
     99  O        117.5200   44.1060    6.4450 O.2   199  PHE199     -0.2867
    100  CB       115.2960   41.6950    6.9080 C.3   199  PHE199      0.0534
    101  CG       114.5920   42.5190    5.8590 C.ar  199  PHE199     -0.0203
    102  CD1      115.1700   42.7370    4.6160 C.ar  199  PHE199     -0.0042
    103  CD2      113.3330   43.0650    6.1150 C.ar  199  PHE199     -0.0042
    104  CE1      114.5080   43.4850    3.6360 C.ar  199  PHE199     -0.0003
    105  CE2      112.6670   43.8090    5.1440 C.ar  199  PHE199     -0.0003
    106  CZ       113.2560   44.0190    3.9030 C.ar  199  PHE199     -0.0000
    107  N        121.0980   41.1970    4.3750 N.3   201  SER201     -0.1217
    108  CA       121.6910   40.0910    3.6440 C.3   201  SER201      0.1889
    109  C        123.1590   39.9580    4.0190 C.2   201  SER201      0.2288
    110  O        123.7520   40.8680    4.5930 O.2   201  SER201     -0.2866
    111  CB       121.5820   40.3440    2.1360 C.3   201  SER201      0.2089
    112  OG       120.2380   40.5450    1.7460 O.3   201  SER201     -0.2183
    113  N        125.7190   39.5620    1.8350 N.3   203  GLN203     -0.1231
    114  CA       126.6020   40.1550    0.8270 C.3   203  GLN203      0.1698
    115  C        126.7370   41.6730    0.6810 C.2   203  GLN203      0.2592
    116  O        127.1780   42.1560   -0.3650 O.2   203  GLN203     -0.2718
    117  CB       126.2650   39.5560   -0.5450 C.3   203  GLN203      0.0381
    118  CG       125.0730   40.1940   -1.2720 C.3   203  GLN203      0.0905
    119  CD       123.7190   39.7520   -0.7400 C.2   203  GLN203      0.2608
    120  OE1      123.6180   38.8230    0.0680 O.2   203  GLN203     -0.2717
    121  NE2      122.6630   40.4150   -1.2070 N.am  203  GLN203     -0.0878
    122  N        126.3780   42.4290    1.7090 N.am  204  LYS204     -0.1980
    123  CA       126.5150   43.8770    1.6340 C.3   204  LYS204      0.1596
    124  C        127.5770   44.3410    2.6490 C.2   204  LYS204      0.2287
    125  O        128.7330   43.9240    2.5590 O.2   204  LYS204     -0.2864
    126  CB       125.1530   44.5540    1.8680 C.3   204  LYS204      0.0298
    127  CG       124.0320   44.1450    0.8580 C.3   204  LYS204      0.0038
    128  CD       124.1250   44.8660   -0.5000 C.3   204  LYS204      0.0206
    129  CE       123.1270   44.3240   -1.5730 C.3   204  LYS204      0.1093
    130  NZ       121.6760   44.7050   -1.4030 N.3   204  LYS204     -0.1314
@<TRIPOS>BOND
     1    52    50    1
     2     5     2    1
     3    50    49    2
     4    50    51    1
     5     1     2    1
     6    49    48    1
     7    41    39   ar
     8    41    40   ar
     9     2     3    1
    10    42    43    1
    11    39    37   ar
    12    43    46    1
    13    43    44    1
    14    40    38   ar
    15    46    47    1
    16    71    70    2
    17    31    32    1
    18    47    48    1
    19     3     4    2
    20    70    69    1
    21    37    36   ar
    22    38    36   ar
    23    45    44    2
    24    32    33    1
    25    32    35    1
    26    36    35    1
    27    74    72    1
    28    72    69    1
    29    72    73    1
    30    33    34    2
    31    69    68    1
    32    22    20    1
    33    21    20    1
    34    11    10    1
    35    20    17    1
    36   129   130    1
    37   129   128    1
    38    10     7    1
    39   118   119    1
    40   118   117    1
    41   121   119   am
    42   119   120    2
    43   117   114    1
    44   128   127    1
    45   116   115    2
    46    29    30    1
    47    29    28    1
    48    17    16    1
    49    17    18    1
    50     7     6    1
    51     7     8    1
    52    16    14   am
    53    18    19    2
    54   115   114    1
    55   115   122   am
    56   114   113    1
    57   127   126    1
    58     8    12   am
    59     8     9    2
    60    28    27    1
    61    82    80   ar
    62    58    57    1
    63    59    57    1
    64    12    13    1
    65    94    95    1
    66    94    91    1
    67    88    87    1
    68    63    62    2
    69    67    65   am
    70   123   122    1
    71   123   126    1
    72   123   124    1
    73    27    24    1
    74    14    13    1
    75    14    15    2
    76    62    61    1
    77   112   111    1
    78    57    54    1
    79    87    89    1
    80    87    84    1
    81   111   108    1
    82    80    81   ar
    83    80    79    1
    84   125   124    2
    85    91    90    1
    86    91    92    1
    87    65    66    2
    88    65    64    1
    89    25    24    1
    90    25    26    2
    91    90    85   am
    92    24    23    1
    93    61    64    1
    94    61    60    1
    95    85    86    2
    96    85    84    1
    97    54    53    1
    98    54    55    1
    99    79    76    1
   100    84    83    1
   101    93    92    2
   102   104   106   ar
   103   104   102   ar
   104   108   109    1
   105   108   107    1
   106    56    55    2
   107   106   105   ar
   108   109   110    2
   109   102   101   ar
   110    78    77    2
   111    76    77    1
   112    76    75    1
   113   105   103   ar
   114   101   103   ar
   115   101   100    1
   116    99    98    2
   117    98    97    1
   118   100    97    1
   119    97    96    1
