@<TRIPOS>MOLECULE
tmp/2dr3D00.pdb
 87 88 0 0 0
SMALL
GASTEIGER

@<TRIPOS>ATOM
      1  N         25.0480  -48.2080  123.3930 N.3   185  HIS185     -0.1241
      2  CA        24.1800  -49.3680  123.6810 C.3   185  HIS185      0.1621
      3  C         24.6580  -50.6200  122.9210 C.2   185  HIS185      0.2264
      4  O         24.4150  -51.7480  123.3460 O.2   185  HIS185     -0.2867
      5  CB        22.7270  -49.0800  123.2860 C.3   185  HIS185      0.0745
      6  CG        22.1610  -47.8560  123.9340 C.ar  185  HIS185      0.0817
      7  ND1       21.8660  -47.7970  125.2790 N.ar  185  HIS185     -0.2268
      8  CD2       21.8810  -46.6290  123.4310 C.ar  185  HIS185      0.1154
      9  CE1       21.4310  -46.5840  125.5780 C.ar  185  HIS185      0.1986
     10  NE2       21.4320  -45.8560  124.4760 N.ar  185  HIS185     -0.2212
     11  N         31.9280  -48.2190  133.2580 N.3   209  TRP209     -0.1227
     12  CA        30.4950  -47.9430  133.2770 C.3   209  TRP209      0.1737
     13  C         29.6890  -49.1720  132.9080 C.2   209  TRP209      0.2595
     14  O         28.5630  -49.3530  133.3670 O.2   209  TRP209     -0.2718
     15  CB        30.1400  -46.8160  132.2920 C.3   209  TRP209      0.0564
     16  CG        30.4130  -45.4520  132.8290 C.ar  209  TRP209      0.0003
     17  CD1       31.5800  -44.7440  132.7250 C.ar  209  TRP209      0.0946
     18  CD2       29.5290  -44.6570  133.6250 C.ar  209  TRP209      0.0152
     19  NE1       31.4760  -43.5600  133.4110 N.ar  209  TRP209     -0.2442
     20  CE2       30.2280  -43.4820  133.9750 C.ar  209  TRP209      0.0810
     21  CE3       28.2130  -44.8220  134.0750 C.ar  209  TRP209      0.0012
     22  CZ2       29.6540  -42.4720  134.7660 C.ar  209  TRP209      0.0191
     23  CZ3       27.6390  -43.8190  134.8590 C.ar  209  TRP209      0.0001
     24  CH2       28.3640  -42.6600  135.1960 C.ar  209  TRP209      0.0015
     25  N         30.2610  -50.0190  132.0650 N.am  210  LYS210     -0.1966
     26  CA        29.5470  -51.2090  131.6330 C.3   210  LYS210      0.1728
     27  C         30.5320  -52.2810  131.1890 C.2   210  LYS210      0.2616
     28  O         31.5780  -51.9710  130.6240 O.2   210  LYS210     -0.2715
     29  CB        28.6070  -50.8440  130.4680 C.3   210  LYS210      0.0311
     30  CG        27.7280  -51.9820  129.9590 C.3   210  LYS210      0.0038
     31  CD        26.7600  -51.5450  128.8440 C.3   210  LYS210      0.0206
     32  CE        27.4520  -51.4020  127.4910 C.3   210  LYS210      0.1093
     33  NZ        26.4780  -51.1830  126.3580 N.3   210  LYS210     -0.1314
     34  N         30.2020  -53.5360  131.4730 N.am  211  MET211     -0.1963
     35  CA        31.0330  -54.6560  131.0530 C.3   211  MET211      0.1736
     36  C         30.1980  -55.9300  131.0940 C.2   211  MET211      0.2616
     37  O         30.2240  -56.6720  132.0750 O.2   211  MET211     -0.2715
     38  CB        32.2690  -54.8090  131.9440 C.3   211  MET211      0.0427
     39  CG        33.3380  -55.7350  131.3420 C.3   211  MET211      0.0599
     40  SD        33.9700  -55.1540  129.7230 S.3   211  MET211     -0.1393
     41  CE        34.6370  -53.5620  130.2170 C.3   211  MET211      0.0692
     42  N         29.4350  -56.1630  130.0310 N.am  212  ARG212     -0.1963
     43  CA        28.6030  -57.3580  129.9430 C.3   212  ARG212      0.1729
     44  C         29.4360  -58.6110  130.2130 C.2   212  ARG212      0.2617
     45  O         30.5920  -58.6910  129.8080 O.2   212  ARG212     -0.2715
     46  CB        27.9680  -57.4740  128.5490 C.3   212  ARG212      0.0348
     47  CG        26.7860  -56.5440  128.2840 C.3   212  ARG212      0.0492
     48  CD        26.0020  -57.0450  127.0680 C.3   212  ARG212      0.2205
     49  NE        24.8440  -56.2170  126.7210 N.pl3 212  ARG212     -0.0865
     50  CZ        24.9030  -55.0860  126.0210 C.cat 212  ARG212      0.5346
     51  NH1       26.0640  -54.6250  125.5800 N.pl3 212  ARG212      0.1354
     52  NH2       23.7940  -54.4210  125.7430 N.pl3 212  ARG212      0.1354
     53  N         28.8500  -59.5780  130.9120 N.am  213  GLY213     -0.1940
     54  CA        29.5550  -60.8190  131.1870 C.3   213  GLY213      0.2014
     55  C         30.3310  -60.9130  132.4870 C.2   213  GLY213      0.2640
     56  O         30.8900  -61.9670  132.7920 O.2   213  GLY213     -0.2714
     57  N         30.3820  -59.8360  133.2630 N.am  214  THR214     -0.1936
     58  CA        31.1170  -59.8870  134.5210 C.3   214  THR214      0.2028
     59  C         30.7920  -58.7580  135.4830 C.2   214  THR214      0.2643
     60  O         30.2220  -57.7320  135.1000 O.2   214  THR214     -0.2714
     61  CB        32.6510  -59.8530  134.2920 C.3   214  THR214      0.1808
     62  OG1       33.3230  -59.8310  135.5600 O.3   214  THR214     -0.2208
     63  CG2       33.0560  -58.5960  133.5160 C.3   214  THR214      0.0379
     64  N         31.1460  -58.9800  136.7450 N.am  215  SER215     -0.1935
     65  CA        30.9820  -57.9820  137.7850 C.3   215  SER215      0.2055
     66  C         32.2650  -57.1840  137.6390 C.2   215  SER215      0.2643
     67  O         33.1970  -57.6210  136.9680 O.2   215  SER215     -0.2714
     68  CB        30.9380  -58.6340  139.1710 C.3   215  SER215      0.2130
     69  OG        32.1420  -59.3230  139.4610 O.3   215  SER215     -0.2179
     70  N         32.3370  -56.0230  138.2610 N.am  216  HIS216     -0.1973
     71  CA        33.5440  -55.2240  138.1320 C.3   216  HIS216      0.1656
     72  C         33.4820  -54.1150  139.1410 C.2   216  HIS216      0.2291
     73  O         32.4370  -53.8950  139.7530 O.2   216  HIS216     -0.2864
     74  CB        33.6370  -54.6490  136.7140 C.3   216  HIS216      0.0771
     75  CG        32.4080  -53.9070  136.2840 C.ar  216  HIS216      0.0820
     76  ND1       32.1540  -52.6070  136.6620 N.ar  216  HIS216     -0.2267
     77  CD2       31.3460  -54.2970  135.5410 C.ar  216  HIS216      0.1154
     78  CE1       30.9870  -52.2270  136.1700 C.ar  216  HIS216      0.1986
     79  NE2       30.4760  -53.2350  135.4850 N.ar  216  HIS216     -0.2212
     80  N         32.9550  -50.6900  140.7920 N.3   218  MET218     -0.1245
     81  CA        31.9680  -49.6610  140.5250 C.3   218  MET218      0.1570
     82  C         32.5130  -48.3040  140.9600 C.2   218  MET218      0.2261
     83  O         31.7700  -47.3240  141.0310 O.2   218  MET218     -0.2867
     84  CB        30.6760  -49.9690  141.2920 C.3   218  MET218      0.0387
     85  CG        30.0700  -51.3310  140.9760 C.3   218  MET218      0.0595
     86  SD        29.3870  -51.3950  139.3010 S.3   218  MET218     -0.1393
     87  CE        27.6710  -51.0130  139.6560 C.3   218  MET218      0.0692
@<TRIPOS>BOND
     1     3     4    2
     2     3     2    1
     3     5     2    1
     4     5     6    1
     5     1     2    1
     6     8     6   ar
     7     8    10   ar
     8     6     7   ar
     9    10     9   ar
    10     7     9   ar
    11    51    50    1
    12    52    50    1
    13    50    49    2
    14    33    32    1
    15    49    48    1
    16    48    47    1
    17    32    31    1
    18    47    46    1
    19    46    43    1
    20    31    30    1
    21    40    41    1
    22    40    39    1
    23    45    44    2
    24    43    42    1
    25    43    44    1
    26    30    29    1
    27    42    36   am
    28    44    53   am
    29    29    26    1
    30    28    27    2
    31    53    54    1
    32    35    36    1
    33    35    34    1
    34    35    38    1
    35    36    37    2
    36    54    55    1
    37    27    34   am
    38    27    26    1
    39    39    38    1
    40    26    25    1
    41    25    13   am
    42    15    16    1
    43    15    12    1
    44    55    56    2
    45    55    57   am
    46    17    16   ar
    47    17    19   ar
    48    16    18   ar
    49    13    12    1
    50    13    14    2
    51    11    12    1
    52    57    58    1
    53    19    20   ar
    54    63    61    1
    55    18    20   ar
    56    18    21   ar
    57    20    22   ar
    58    21    23   ar
    59    61    58    1
    60    61    62    1
    61    58    59    1
    62    22    24   ar
    63    23    24   ar
    64    60    59    2
    65    59    64   am
    66    79    77   ar
    67    79    78   ar
    68    77    75   ar
    69    78    76   ar
    70    75    76   ar
    71    75    74    1
    72    74    71    1
    73    64    65    1
    74    67    66    2
    75    66    65    1
    76    66    70   am
    77    65    68    1
    78    71    70    1
    79    71    72    1
    80    72    73    2
    81    68    69    1
    82    86    87    1
    83    86    85    1
    84    81    80    1
    85    81    82    1
    86    81    84    1
    87    82    83    2
    88    85    84    1
