@<TRIPOS>MOLECULE
tmp/2dr3D01.pdb
 98 95 0 0 0
SMALL
GASTEIGER

@<TRIPOS>ATOM
      1  N         40.1390  -35.4660  124.6640 N.3    31  PRO31      -0.2102
      2  CA        41.5260  -35.5090  124.1960 C.3    31  PRO31       0.1504
      3  C         42.5080  -35.4730  125.3670 C.2    31  PRO31       0.2576
      4  O         42.2260  -34.8610  126.3920 O.2    31  PRO31      -0.2718
      5  CB        41.6350  -34.2640  123.3140 C.3    31  PRO31       0.0282
      6  CG        40.6680  -33.3260  123.9190 C.3    31  PRO31       0.0208
      7  CD        39.4830  -34.2130  124.2480 C.3    31  PRO31       0.0893
      8  N         43.6500  -36.1380  125.2070 N.am   32  GLY32      -0.1943
      9  CA        44.6620  -36.1490  126.2520 C.3    32  GLY32       0.2014
     10  C         44.3270  -36.9930  127.4720 C.2    32  GLY32       0.2640
     11  O         44.8780  -36.7590  128.5500 O.2    32  GLY32      -0.2714
     12  N         43.4450  -37.9780  127.3180 N.am   33  THR33      -0.1936
     13  CA        43.0680  -38.8230  128.4530 C.3    33  THR33       0.2028
     14  C         43.8090  -40.1590  128.4990 C.2    33  THR33       0.2643
     15  O         43.7040  -40.9050  129.4740 O.2    33  THR33      -0.2714
     16  CB        41.5420  -39.0630  128.4880 C.3    33  THR33       0.1808
     17  OG1       41.0910  -39.5830  127.2280 O.3    33  THR33      -0.2208
     18  CG2       40.8200  -37.7550  128.7890 C.3    33  THR33       0.0379
     19  N         44.5590  -40.4540  127.4400 N.am   34  GLY34      -0.1939
     20  CA        45.3370  -41.6780  127.4020 C.3    34  GLY34       0.2014
     21  C         44.7260  -42.8770  126.7030 C.2    34  GLY34       0.2639
     22  O         45.1830  -43.9980  126.9080 O.2    34  GLY34      -0.2714
     23  N         43.7140  -42.6590  125.8700 N.am   35  LYS35      -0.1963
     24  CA        43.0540  -43.7620  125.1650 C.3    35  LYS35       0.1728
     25  C         43.9640  -44.5040  124.1700 C.2    35  LYS35       0.2617
     26  O         43.9750  -45.7420  124.1160 O.2    35  LYS35      -0.2715
     27  CB        41.8180  -43.2380  124.4340 C.3    35  LYS35       0.0311
     28  CG        40.8580  -42.4640  125.3360 C.3    35  LYS35       0.0038
     29  CD        39.5890  -42.0710  124.5960 C.3    35  LYS35       0.0206
     30  CE        39.8900  -41.1680  123.4010 C.3    35  LYS35       0.1093
     31  NZ        40.5780  -39.9090  123.8090 N.3    35  LYS35      -0.1314
     32  N         44.7220  -43.7540  123.3790 N.am   36  THR36      -0.1937
     33  CA        45.6150  -44.3840  122.4140 C.3    36  THR36       0.2028
     34  C         46.6690  -45.1940  123.1620 C.2    36  THR36       0.2642
     35  O         46.9070  -46.3630  122.8410 O.2    36  THR36      -0.2714
     36  CB        46.2940  -43.3310  121.5070 C.3    36  THR36       0.1808
     37  OG1       45.2840  -42.5580  120.8420 O.3    36  THR36      -0.2208
     38  CG2       47.1670  -44.0080  120.4470 C.3    36  THR36       0.0379
     39  N         47.2840  -44.5790  124.1690 N.am   37  ILE37      -0.1977
     40  CA        48.3060  -45.2540  124.9600 C.3    37  ILE37       0.1596
     41  C         47.7470  -46.5180  125.6210 C.2    37  ILE37       0.2287
     42  O         48.4040  -47.5610  125.6460 O.2    37  ILE37      -0.2864
     43  CB        48.8700  -44.3170  126.0510 C.3    37  ILE37       0.0276
     44  CG1       49.6160  -43.1480  125.3980 C.3    37  ILE37       0.0022
     45  CG2       49.7990  -45.0880  126.9690 C.3    37  ILE37       0.0022
     46  CD1       50.1060  -42.1040  126.3740 C.3    37  ILE37       0.0001
     47  N         57.5380  -45.9680  123.9880 N.3    72  PHE72      -0.1241
     48  CA        57.0630  -46.4630  125.2810 C.3    72  PHE72       0.1605
     49  C         57.7200  -47.7950  125.6110 C.2    72  PHE72       0.2264
     50  O         57.3260  -48.4610  126.5740 O.2    72  PHE72      -0.2867
     51  CB        55.5480  -46.6010  125.2820 C.3    72  PHE72       0.0534
     52  CG        54.8090  -45.3420  125.6160 C.ar   72  PHE72      -0.0203
     53  CD1       54.8010  -44.8640  126.9240 C.ar   72  PHE72      -0.0042
     54  CD2       54.1790  -44.5980  124.6270 C.ar   72  PHE72      -0.0042
     55  CE1       54.1640  -43.6780  127.2420 C.ar   72  PHE72      -0.0003
     56  CE2       53.5370  -43.4050  124.9350 C.ar   72  PHE72      -0.0003
     57  CZ        53.5250  -42.9460  126.2500 C.ar   72  PHE72      -0.0000
     58  N         38.1500  -47.2070  120.2280 N.3   168  VAL168     -0.1245
     59  CA        38.4570  -45.9270  120.8510 C.3   168  VAL168      0.1561
     60  C         37.4080  -44.9170  120.4140 C.2   168  VAL168      0.2260
     61  O         37.1950  -44.7110  119.2280 O.2   168  VAL168     -0.2867
     62  CB        39.8590  -45.4170  120.4510 C.3   168  VAL168      0.0252
     63  CG1       40.0910  -44.0110  121.0310 C.3   168  VAL168      0.0019
     64  CG2       40.9220  -46.3780  120.9730 C.3   168  VAL168      0.0019
     65  N         43.7680  -37.6560  136.4520 N.3   204  ARG204     -0.1245
     66  CA        43.3660  -38.7180  135.5410 C.3   204  ARG204      0.1563
     67  C         42.6250  -39.7880  136.3170 C.2   204  ARG204      0.2260
     68  O         43.0300  -40.1470  137.4250 O.2   204  ARG204     -0.2867
     69  CB        44.5830  -39.3700  134.8950 C.3   204  ARG204      0.0307
     70  CG        45.5040  -38.4310  134.1770 C.3   204  ARG204      0.0489
     71  CD        46.5560  -39.2230  133.4080 C.3   204  ARG204      0.2205
     72  NE        47.4550  -38.3210  132.7050 N.pl3 204  ARG204     -0.0865
     73  CZ        47.1260  -37.6410  131.6140 C.cat 204  ARG204      0.5346
     74  NH1       45.9140  -37.7740  131.0930 N.pl3 204  ARG204      0.1354
     75  NH2       48.0010  -36.8030  131.0640 N.pl3 204  ARG204      0.1354
     76  N         50.0130  -41.8700  133.6560 N.3   225  ILE225     -0.1231
     77  CA        50.5770  -42.2540  132.3740 C.3   225  ILE225      0.1692
     78  C         52.0700  -42.0560  132.6250 C.2   225  ILE225      0.2593
     79  O         52.4870  -40.9980  133.1070 O.2   225  ILE225     -0.2718
     80  CB        50.1090  -41.3350  131.2290 C.3   225  ILE225      0.0266
     81  CG1       48.5850  -41.4190  131.0890 C.3   225  ILE225      0.0019
     82  CG2       50.7700  -41.7620  129.9220 C.3   225  ILE225      0.0020
     83  CD1       48.0030  -40.5630  129.9800 C.3   225  ILE225      0.0001
     84  N         52.8660  -43.0840  132.3450 N.am  226  THR226     -0.1939
     85  CA        54.3090  -43.0130  132.5650 C.3   226  THR226      0.2028
     86  C         55.0540  -43.2870  131.2650 C.2   226  THR226      0.2642
     87  O         54.4350  -43.4640  130.2150 O.2   226  THR226     -0.2714
     88  CB        54.7610  -44.0500  133.6130 C.3   226  THR226      0.1808
     89  OG1       54.6710  -45.3650  133.0530 O.3   226  THR226     -0.2208
     90  CG2       53.8750  -43.9830  134.8480 C.3   226  THR226      0.0379
     91  N         56.3850  -43.3200  131.3340 N.am  227  ASP227     -0.1971
     92  CA        57.1870  -43.5910  130.1450 C.3   227  ASP227      0.1709
     93  C         57.1060  -45.0760  129.8030 C.2   227  ASP227      0.2293
     94  O         57.5770  -45.5100  128.7540 O.2   227  ASP227     -0.2864
     95  CB        58.6540  -43.1820  130.3660 C.3   227  ASP227      0.1436
     96  CG        59.3770  -44.0830  131.3530 C.2   227  ASP227      0.3671
     97  OD1       58.9890  -44.1070  132.5430 O.co2 227  ASP227     -0.2456
     98  OD2       60.3380  -44.7680  130.9380 O.co2 227  ASP227     -0.2456
@<TRIPOS>BOND
     1    61    60    2
     2    58    59    1
     3    60    59    1
     4    38    36    1
     5    62    59    1
     6    62    64    1
     7    62    63    1
     8    37    36    1
     9    36    33    1
    10    33    34    1
    11    33    32    1
    12    35    34    2
    13    34    39   am
    14     5     6    1
    15     5     2    1
    16    32    25   am
    17    30    31    1
    18    30    29    1
    19     6     7    1
    20    47    48    1
    21    26    25    2
    22    39    40    1
    23    25    24    1
    24     2     1    1
    25     2     3    1
    26     7     1    1
    27    27    24    1
    28    27    28    1
    29    29    28    1
    30    54    56   ar
    31    54    52   ar
    32    56    57   ar
    33    40    41    1
    34    40    43    1
    35    24    23    1
    36     8     3   am
    37     8     9    1
    38    48    51    1
    39    48    49    1
    40    51    52    1
    41     3     4    2
    42    44    43    1
    43    44    46    1
    44    49    50    2
    45    52    53   ar
    46    41    42    2
    47    23    21   am
    48    43    45    1
    49    57    55   ar
    50     9    10    1
    51    21    22    2
    52    21    20    1
    53    53    55   ar
    54    17    16    1
    55    12    10   am
    56    12    13    1
    57    20    19    1
    58    19    14   am
    59    10    11    2
    60    13    16    1
    61    13    14    1
    62    16    18    1
    63    14    15    2
    64    94    93    2
    65    93    92    1
    66    82    80    1
    67    83    81    1
    68    92    95    1
    69    92    91    1
    70    87    86    2
    71    95    96    1
    72    98    96   ar
    73    75    73    1
    74    81    80    1
    75    74    73    1
    76    80    77    1
    77    86    91   am
    78    86    85    1
    79    96    97   ar
    80    73    72    2
    81    84    85    1
    82    84    78   am
    83    77    78    1
    84    77    76    1
    85    85    88    1
    86    78    79    2
    87    72    71    1
    88    89    88    1
    89    71    70    1
    90    88    90    1
    91    70    69    1
    92    69    66    1
    93    66    67    1
    94    66    65    1
    95    67    68    2
