@<TRIPOS>MOLECULE
tmp/2dreC01.pdb
 160 158 0 0 0
SMALL
GASTEIGER

@<TRIPOS>ATOM
      1  N         34.3810   37.2340   11.4090 N.3    33  VAL33      -0.1231
      2  CA        34.0390   36.4710   10.2080 C.3    33  VAL33       0.1678
      3  C         33.9510   37.3430    8.9530 C.2    33  VAL33       0.2434
      4  O         33.8670   38.5670    9.0450 O.2    33  VAL33      -0.2733
      5  CB        32.6690   35.8210   10.3920 C.3    33  VAL33       0.0265
      6  CG1       32.6600   34.9190   11.6310 C.3    33  VAL33       0.0020
      7  CG2       31.6120   36.9200   10.5370 C.3    33  VAL33       0.0020
      8  N         33.9550   36.7180    7.7580 N.am   34  PRO34      -0.2718
      9  CA        33.8600   37.5080    6.5230 C.3    34  PRO34       0.1535
     10  C         32.4070   37.9320    6.3200 C.2    34  PRO34       0.2598
     11  O         31.4930   37.1430    6.5010 O.2    34  PRO34      -0.2715
     12  CB        34.2910   36.5250    5.4230 C.3    34  PRO34       0.0310
     13  CG        34.9570   35.3880    6.1620 C.3    34  PRO34       0.0237
     14  CD        34.1720   35.2990    7.4480 C.3    34  PRO34       0.0939
     15  N         32.2020   39.1840    5.9540 N.am   35  ALA35      -0.1964
     16  CA        30.8670   39.6910    5.6900 C.3    35  ALA35       0.1728
     17  C         31.0500   40.9230    4.8200 C.2    35  ALA35       0.2616
     18  O         32.0540   41.6270    4.9430 O.2    35  ALA35      -0.2715
     19  CB        30.1730   40.0560    6.9980 C.3    35  ALA35       0.0334
     20  N         30.1150   41.1850    3.9160 N.am   36  ASN36      -0.1972
     21  CA        30.2670   42.3730    3.0820 C.3    36  ASN36       0.1688
     22  C         30.0010   43.6010    3.9610 C.2    36  ASN36       0.2292
     23  O         29.1310   43.5690    4.8250 O.2    36  ASN36      -0.2864
     24  CB        29.3080   42.3310    1.8810 C.3    36  ASN36       0.1181
     25  CG        27.8550   42.3540    2.2890 C.2    36  ASN36       0.2629
     26  OD1       27.3960   41.5040    3.0420 O.2    36  ASN36      -0.2716
     27  ND2       27.1170   43.3310    1.7820 N.am   36  ASN36      -0.0877
     28  N         29.4790   42.8930   -2.8960 N.3    42  LEU42      -0.1231
     29  CA        29.4440   41.6500   -2.1430 C.3    42  LEU42       0.1693
     30  C         30.8860   41.1700   -1.9630 C.2    42  LEU42       0.2592
     31  O         31.2060   40.4650   -1.0000 O.2    42  LEU42      -0.2718
     32  CB        28.6470   40.5770   -2.8860 C.3    42  LEU42       0.0284
     33  CG        27.1530   40.7520   -3.1330 C.3    42  LEU42       0.0019
     34  CD1       26.6230   39.4510   -3.6920 C.3    42  LEU42       0.0001
     35  CD2       26.4240   41.0930   -1.8430 C.3    42  LEU42       0.0001
     36  N         31.7480   41.5750   -2.8950 N.am   43  CYS43      -0.1970
     37  CA        33.1660   41.2040   -2.8850 C.3    43  CYS43       0.1712
     38  C         34.0320   42.4350   -3.1670 C.2    43  CYS43       0.2296
     39  O         33.6660   43.2760   -3.9810 O.2    43  CYS43      -0.2864
     40  CB        33.4470   40.1520   -3.9680 C.3    43  CYS43       0.0983
     41  SG        32.6460   38.5260   -3.7850 S.3    43  CYS43      -0.0798
     42  N         35.4180   40.9880    0.8220 N.3    45  LEU45      -0.1245
     43  CA        34.7170   40.9170    2.1000 C.3    45  LEU45       0.1561
     44  C         35.3600   41.6610    3.2560 C.2    45  LEU45       0.2260
     45  O         36.5800   41.7490    3.3600 O.2    45  LEU45      -0.2867
     46  CB        34.5430   39.4460    2.4780 C.3    45  LEU45       0.0270
     47  CG        33.6260   38.7250    1.4910 C.3    45  LEU45       0.0019
     48  CD1       33.9460   37.2240    1.4460 C.3    45  LEU45       0.0001
     49  CD2       32.1710   38.9750    1.9220 C.3    45  LEU45       0.0001
     50  N         33.7940   41.2820   10.0900 N.3    48  VAL48      -0.1245
     51  CA        32.7540   41.6730   11.0280 C.3    48  VAL48       0.1561
     52  C         32.6770   40.7870   12.2590 C.2    48  VAL48       0.2260
     53  O         32.9800   39.5910   12.1970 O.2    48  VAL48      -0.2867
     54  CB        31.3800   41.6560   10.3190 C.3    48  VAL48       0.0252
     55  CG1       30.2630   41.9150   11.3090 C.3    48  VAL48       0.0019
     56  CG2       31.3670   42.6970    9.2150 C.3    48  VAL48       0.0019
     57  N         30.5280   38.7820   14.5210 N.3    50  THR50      -0.1203
     58  CA        29.1870   38.2000   14.4250 C.3    50  THR50       0.1994
     59  C         28.4390   38.3930   15.7320 C.2    50  THR50       0.2619
     60  O         29.0280   38.3020   16.8080 O.2    50  THR50      -0.2717
     61  CB        29.2230   36.6690   14.0880 C.3    50  THR50       0.1784
     62  OG1       27.8820   36.1740   14.0250 O.3    50  THR50      -0.2211
     63  CG2       29.9830   35.8880   15.1490 C.3    50  THR50       0.0376
     64  N         27.1420   38.6530   15.6490 N.am   51  SER51      -0.1937
     65  CA        26.3740   38.8690   16.8720 C.3    51  SER51       0.2055
     66  C         25.9820   37.5530   17.5330 C.2    51  SER51       0.2642
     67  O         25.6900   37.5130   18.7340 O.2    51  SER51      -0.2714
     68  CB        25.1310   39.7260   16.5870 C.3    51  SER51       0.2130
     69  OG        24.1450   39.0190   15.8550 O.3    51  SER51      -0.2179
     70  N         25.9970   36.4740   16.7590 N.am   52  LEU52      -0.1977
     71  CA        25.6400   35.1630   17.2890 C.3    52  LEU52       0.1596
     72  C         26.6160   34.7470   18.3840 C.2    52  LEU52       0.2287
     73  O         27.7970   34.5290   18.1300 O.2    52  LEU52      -0.2864
     74  CB        25.6130   34.1340   16.1650 C.3    52  LEU52       0.0297
     75  CG        24.6120   34.4450   15.0560 C.3    52  LEU52       0.0022
     76  CD1       24.5000   33.2270   14.1740 C.3    52  LEU52       0.0001
     77  CD2       23.2380   34.7970   15.6440 C.3    52  LEU52       0.0001
     78  N         29.2690   31.5040   17.9260 N.3    55  GLN55      -0.1245
     79  CA        30.0030   31.3560   16.6820 C.3    55  GLN55       0.1566
     80  C         31.4080   31.8520   17.0080 C.2    55  GLN55       0.2260
     81  O         31.5940   33.0210   17.3140 O.2    55  GLN55      -0.2867
     82  CB        29.3610   32.2030   15.5910 C.3    55  GLN55       0.0367
     83  CG        28.0910   31.5980   15.0620 C.3    55  GLN55       0.0905
     84  CD        28.3300   30.2590   14.4120 C.2    55  GLN55       0.2608
     85  OE1       28.1680   29.2370   15.0800 O.2    55  GLN55      -0.2717
     86  NE2       28.7420   30.2300   13.1420 N.am   55  GLN55      -0.0878
     87  N         33.9950   32.2510   15.0660 N.3    57  GLY57      -0.1210
     88  CA        34.6080   33.0700   14.0470 C.3    57  GLY57       0.1956
     89  C         35.1710   32.1350   13.0030 C.2    57  GLY57       0.2611
     90  O         35.2090   30.9120   13.2140 O.2    57  GLY57      -0.2717
     91  N         35.5840   32.6870   11.8630 N.am   58  LEU58      -0.1979
     92  CA        36.1630   31.8620   10.8180 C.3    58  LEU58       0.1596
     93  C         37.6640   31.8340   11.1100 C.2    58  LEU58       0.2287
     94  O         38.2940   32.8850   11.2500 O.2    58  LEU58      -0.2864
     95  CB        35.9090   32.4740    9.4420 C.3    58  LEU58       0.0297
     96  CG        36.3930   31.5810    8.2970 C.3    58  LEU58       0.0022
     97  CD1       35.5750   30.2910    8.2780 C.3    58  LEU58       0.0001
     98  CD2       36.2560   32.3220    6.9640 C.3    58  LEU58       0.0001
     99  N         39.4390   28.4350    5.0350 N.3    85  ALA85      -0.1231
    100  CA        38.1230   27.8790    4.7500 C.3    85  ALA85       0.1679
    101  C         38.1520   27.0780    3.4580 C.2    85  ALA85       0.2434
    102  O         38.8430   27.4390    2.5020 O.2    85  ALA85      -0.2733
    103  CB        37.0920   29.0000    4.6230 C.3    85  ALA85       0.0304
    104  N         37.3800   25.9890    3.4060 N.am   86  PRO86      -0.2718
    105  CA        37.3410   25.1530    2.2030 C.3    86  PRO86       0.1535
    106  C         36.4160   25.7220    1.1220 C.2    86  PRO86       0.2598
    107  O         36.3660   25.2010    0.0060 O.2    86  PRO86      -0.2715
    108  CB        36.8630   23.8140    2.7470 C.3    86  PRO86       0.0310
    109  CG        35.9020   24.2380    3.8110 C.3    86  PRO86       0.0237
    110  CD        36.6320   25.3620    4.5100 C.3    86  PRO86       0.0939
    111  N         35.6980   26.7910    1.4670 N.am   87  ILE87      -0.1964
    112  CA        34.7790   27.4510    0.5530 C.3    87  ILE87       0.1727
    113  C         35.0670   28.9500    0.5650 C.2    87  ILE87       0.2616
    114  O         35.3640   29.5170    1.6150 O.2    87  ILE87      -0.2715
    115  CB        33.3020   27.1960    0.9770 C.3    87  ILE87       0.0290
    116  CG1       33.0040   25.6930    0.9310 C.3    87  ILE87       0.0022
    117  CG2       32.3500   27.9560    0.0620 C.3    87  ILE87       0.0023
    118  CD1       31.6720   25.3200    1.5420 C.3    87  ILE87       0.0001
    119  N         35.0160   29.5840   -0.6040 N.am   88  TRP88      -0.1960
    120  CA        35.2420   31.0250   -0.6900 C.3    88  TRP88       0.1771
    121  C         34.4140   31.5600   -1.8540 C.2    88  TRP88       0.2620
    122  O         34.6590   31.2170   -3.0130 O.2    88  TRP88      -0.2715
    123  CB        36.7330   31.3510   -0.8740 C.3    88  TRP88       0.0590
    124  CG        37.0590   32.7630   -0.4480 C.ar   88  TRP88       0.0006
    125  CD1       37.4050   33.8130   -1.2560 C.ar   88  TRP88       0.0946
    126  CD2       36.9850   33.2920    0.8850 C.ar   88  TRP88       0.0152
    127  NE1       37.5460   34.9660   -0.5090 N.ar   88  TRP88      -0.2442
    128  CE2       37.2970   34.6740    0.8070 C.ar   88  TRP88       0.0810
    129  CE3       36.6860   32.7330    2.1410 C.ar   88  TRP88       0.0012
    130  CZ2       37.3170   35.5030    1.9310 C.ar   88  TRP88       0.0191
    131  CZ3       36.7030   33.5600    3.2600 C.ar   88  TRP88       0.0001
    132  CH2       37.0170   34.9330    3.1450 C.ar   88  TRP88       0.0015
    133  N         33.4290   32.3980   -1.5270 N.am   89  LEU89      -0.1963
    134  CA        32.5000   32.9750   -2.4990 C.3    89  LEU89       0.1728
    135  C         33.0010   34.1340   -3.3490 C.2    89  LEU89       0.2616
    136  O         32.2870   34.6000   -4.2350 O.2    89  LEU89      -0.2715
    137  CB        31.2190   33.4080   -1.7790 C.3    89  LEU89       0.0311
    138  CG        30.5130   32.2830   -1.0220 C.3    89  LEU89       0.0022
    139  CD1       29.3240   32.8310   -0.2540 C.3    89  LEU89       0.0001
    140  CD2       30.0840   31.2080   -2.0030 C.3    89  LEU89       0.0001
    141  N         34.2110   34.6130   -3.0800 N.am   90  CYS90      -0.1968
    142  CA        34.7670   35.7110   -3.8570 C.3    90  CYS90       0.1712
    143  C         36.0230   35.2620   -4.5950 C.2    90  CYS90       0.2296
    144  O         36.7640   34.3980   -4.1140 O.2    90  CYS90      -0.2864
    145  CB        35.1010   36.9010   -2.9570 C.3    90  CYS90       0.0983
    146  SG        33.6590   37.7180   -2.2090 S.3    90  CYS90      -0.0798
    147  N         26.2760   44.4710    8.5900 N.3   152  TRP152     -0.1241
    148  CA        26.0200   43.2810    9.3910 C.3   152  TRP152      0.1605
    149  C         26.4750   43.3830   10.8310 C.2   152  TRP152      0.2264
    150  O         26.2770   42.4520   11.6080 O.2   152  TRP152     -0.2867
    151  CB        26.6790   42.0600    8.7460 C.3   152  TRP152      0.0550
    152  CG        25.9960   41.6000    7.5130 C.ar  152  TRP152      0.0003
    153  CD1       26.4600   41.6890    6.2300 C.ar  152  TRP152      0.0946
    154  CD2       24.7170   40.9620    7.4370 C.ar  152  TRP152      0.0152
    155  NE1       25.5490   41.1390    5.3610 N.ar  152  TRP152     -0.2442
    156  CE2       24.4690   40.6860    6.0750 C.ar  152  TRP152      0.0810
    157  CE3       23.7550   40.5950    8.3890 C.ar  152  TRP152      0.0012
    158  CZ2       23.2960   40.0560    5.6370 C.ar  152  TRP152      0.0191
    159  CZ3       22.5850   39.9680    7.9560 C.ar  152  TRP152      0.0001
    160  CH2       22.3700   39.7060    6.5920 C.ar  152  TRP152      0.0015
@<TRIPOS>BOND
     1   143   144    2
     2   143   142    1
     3   136   135    2
     4    39    38    2
     5    40    41    1
     6    40    37    1
     7   142   141    1
     8   142   145    1
     9    41   146    1
    10    34    33    1
    11   135   141   am
    12   135   134    1
    13    38    37    1
    14    33    32    1
    15    33    35    1
    16   122   121    2
    17   145   146    1
    18    28    29    1
    19    36    37    1
    20    36    30   am
    21    32    29    1
    22   134   137    1
    23   134   133    1
    24    29    30    1
    25   140   138    1
    26    30    31    2
    27   121   133   am
    28   121   120    1
    29   137   138    1
    30   125   127   ar
    31   125   124   ar
    32   138   139    1
    33   123   120    1
    34   123   124    1
    35   120   119    1
    36   119   113   am
    37   127   128   ar
    38   124   126   ar
    39   107   106    2
    40   117   115    1
    41   112   113    1
    42   112   115    1
    43   112   111    1
    44   113   114    2
    45   128   126   ar
    46   128   130   ar
    47    42    43    1
    48   126   129   ar
    49   116   115    1
    50   116   118    1
    51   106   111   am
    52   106   105    1
    53    48    47    1
    54    47    49    1
    55    47    46    1
    56    27    25   am
    57    24    25    1
    58    24    21    1
    59   130   132   ar
    60    43    46    1
    61    43    44    1
    62   129   131   ar
    63   105   108    1
    64   105   104    1
    65    25    26    2
    66   102   101    2
    67   108   109    1
    68    21    20    1
    69    21    22    1
    70   132   131   ar
    71    44    45    2
    72   104   101   am
    73   104   110    1
    74   101   100    1
    75   109   110    1
    76    20    17   am
    77    22    23    2
    78   103   100    1
    79   100    99    1
    80    17    18    2
    81    17    16    1
    82   155   156   ar
    83   155   153   ar
    84    12    13    1
    85    12     9    1
    86   158   156   ar
    87   158   160   ar
    88    16    15    1
    89    16    19    1
    90    15    10   am
    91   156   154   ar
    92    13    14    1
    93   153   152   ar
    94    10    11    2
    95    10     9    1
    96     9     8    1
    97   160   159   ar
    98    98    96    1
    99   154   152   ar
   100   154   157   ar
   101    14     8    1
   102   152   151    1
   103     8     3   am
   104   159   157   ar
   105    97    96    1
   106    96    95    1
   107   147   148    1
   108   151   148    1
   109     3     4    2
   110     3     2    1
   111    56    54    1
   112   148   149    1
   113    95    92    1
   114    50    51    1
   115     2     5    1
   116     2     1    1
   117    54    51    1
   118    54    55    1
   119     5     7    1
   120     5     6    1
   121    92    93    1
   122    92    91    1
   123   149   150    2
   124    51    52    1
   125    93    94    2
   126    91    89   am
   127    53    52    2
   128    89    90    2
   129    89    88    1
   130    86    84   am
   131    62    61    1
   132    88    87    1
   133    61    58    1
   134    61    63    1
   135    76    75    1
   136    84    83    1
   137    84    85    2
   138    58    57    1
   139    58    59    1
   140    75    77    1
   141    75    74    1
   142    83    82    1
   143    82    79    1
   144    64    59   am
   145    64    65    1
   146    59    60    2
   147    69    68    1
   148    74    71    1
   149    68    65    1
   150    79    80    1
   151    79    78    1
   152    70    71    1
   153    70    66   am
   154    65    66    1
   155    80    81    2
   156    71    72    1
   157    66    67    2
   158    73    72    2
