@<TRIPOS>MOLECULE
tmp/2driA00.pdb
 101 95 0 0 0
SMALL
GASTEIGER

@<TRIPOS>ATOM
      1  N         56.0180   37.4000   51.9780 N.3    13  ASN13      -0.1240
      2  CA        54.6040   37.4940   51.6440 C.3    13  ASN13       0.1653
      3  C         53.9240   36.5910   52.6390 C.2    13  ASN13       0.2266
      4  O         54.2190   35.4040   52.6790 O.2    13  ASN13      -0.2867
      5  CB        54.3430   37.0160   50.1930 C.3    13  ASN13       0.1155
      6  CG        52.8610   37.0230   49.7730 C.2    13  ASN13       0.2627
      7  OD1       51.9550   37.1130   50.6020 O.2    13  ASN13      -0.2716
      8  ND2       52.6110   36.9180   48.4720 N.am   13  ASN13      -0.0877
      9  N         51.2050   35.1350   52.7170 N.3    15  PHE15      -0.1227
     10  CA        50.5690   33.9730   52.1180 C.3    15  PHE15       0.1736
     11  C         51.5190   32.7600   52.1180 C.2    15  PHE15       0.2595
     12  O         51.1420   31.6570   52.5160 O.2    15  PHE15      -0.2718
     13  CB        50.1210   34.2950   50.6950 C.3    15  PHE15       0.0547
     14  CG        49.5370   33.1120   49.9720 C.ar   15  PHE15      -0.0202
     15  CD1       48.1780   32.8150   50.0810 C.ar   15  PHE15      -0.0042
     16  CD2       50.3400   32.3130   49.1550 C.ar   15  PHE15      -0.0042
     17  CE1       47.6330   31.7490   49.3810 C.ar   15  PHE15      -0.0003
     18  CE2       49.8010   31.2430   48.4540 C.ar   15  PHE15      -0.0003
     19  CZ        48.4430   30.9600   48.5640 C.ar   15  PHE15      -0.0000
     20  N         52.7560   32.9670   51.6810 N.am   16  PHE16      -0.1976
     21  CA        53.7150   31.8710   51.6260 C.3    16  PHE16       0.1639
     22  C         54.2430   31.4720   52.9990 C.2    16  PHE16       0.2290
     23  O         54.6460   30.3360   53.1940 O.2    16  PHE16      -0.2864
     24  CB        54.8360   32.1990   50.6470 C.3    16  PHE16       0.0560
     25  CG        54.3320   32.2080   49.2410 C.ar   16  PHE16      -0.0200
     26  CD1       53.8380   31.0330   48.6580 C.ar   16  PHE16      -0.0042
     27  CD2       54.2970   33.3940   48.4950 C.ar   16  PHE16      -0.0042
     28  CE1       53.3190   31.0500   47.3640 C.ar   16  PHE16      -0.0003
     29  CE2       53.7780   33.4100   47.1950 C.ar   16  PHE16      -0.0003
     30  CZ        53.2860   32.2390   46.6300 C.ar   16  PHE16      -0.0000
     31  N         50.3700   25.7280   44.3890 N.3    89  ASP89      -0.1225
     32  CA        49.8860   27.0830   44.1220 C.3    89  ASP89       0.1805
     33  C         50.0730   27.5750   42.6730 C.2    89  ASP89       0.2597
     34  O         49.1640   28.1840   42.1150 O.2    89  ASP89      -0.2718
     35  CB        50.4940   28.0410   45.1670 C.3    89  ASP89       0.1424
     36  CG        50.1390   29.4830   44.9250 C.2    89  ASP89       0.3668
     37  OD1       48.9510   29.8350   45.0660 O.co2  89  ASP89      -0.2456
     38  OD2       51.0460   30.2550   44.5860 O.co2  89  ASP89      -0.2456
     39  N         51.2330   27.3250   42.0700 N.am   90  ARG90      -0.1979
     40  CA        51.4740   27.6870   40.6700 C.3    90  ARG90       0.1597
     41  C         51.9110   26.4610   39.9080 C.2    90  ARG90       0.2287
     42  O         52.5660   25.5950   40.4590 O.2    90  ARG90      -0.2864
     43  CB        52.5680   28.7520   40.5470 C.3    90  ARG90       0.0334
     44  CG        52.2400   30.0610   41.2660 C.3    90  ARG90       0.0492
     45  CD        53.4710   30.9120   41.4260 C.3    90  ARG90       0.2205
     46  NE        53.2220   32.1220   42.2110 N.pl3  90  ARG90      -0.0865
     47  CZ        54.1870   32.9510   42.5740 C.cat  90  ARG90       0.5346
     48  NH1       55.4570   32.6920   42.2420 N.pl3  90  ARG90       0.1354
     49  NH2       53.8910   34.0340   43.2680 N.pl3  90  ARG90       0.1354
     50  N         49.1550   31.6880   38.3140 N.3   137  ALA137     -0.1245
     51  CA        48.2190   32.3800   39.1980 C.3   137  ALA137      0.1562
     52  C         47.8270   33.7470   38.6310 C.2   137  ALA137      0.2260
     53  O         46.6380   34.0400   38.5120 O.2   137  ALA137     -0.2867
     54  CB        48.8120   32.5290   40.5930 C.3   137  ALA137      0.0290
     55  N         44.0130   34.5730   37.0760 N.3   141  ARG141     -0.1245
     56  CA        43.2050   35.6390   37.6720 C.3   141  ARG141      0.1563
     57  C         42.8610   36.6960   36.6410 C.2   141  ARG141      0.2260
     58  O         41.7450   37.2010   36.6360 O.2   141  ARG141     -0.2867
     59  CB        43.8950   36.2530   38.8790 C.3   141  ARG141      0.0307
     60  CG        43.8680   35.3140   40.0580 C.3   141  ARG141      0.0489
     61  CD        44.8160   35.7080   41.1740 C.3   141  ARG141      0.2205
     62  NE        45.0760   34.5460   42.0110 N.pl3 141  ARG141     -0.0865
     63  CZ        46.0200   34.4860   42.9350 C.cat 141  ARG141      0.5346
     64  NH1       46.7580   35.5500   43.2320 N.pl3 141  ARG141      0.1354
     65  NH2       46.2090   33.3470   43.5890 N.pl3 141  ARG141      0.1354
     66  N         52.9010   41.0690   42.7810 N.3   164  PHE164     -0.1241
     67  CA        52.4140   40.5130   44.0560 C.3   164  PHE164      0.1605
     68  C         53.1060   41.1420   45.2660 C.2   164  PHE164      0.2264
     69  O         53.0960   40.5470   46.3510 O.2   164  PHE164     -0.2867
     70  CB        52.6330   38.9730   44.0870 C.3   164  PHE164      0.0534
     71  CG        51.7500   38.1730   43.1730 C.ar  164  PHE164     -0.0203
     72  CD1       50.3800   38.4350   43.0980 C.ar  164  PHE164     -0.0042
     73  CD2       52.2680   37.1110   42.4360 C.ar  164  PHE164     -0.0042
     74  CE1       49.5490   37.6450   42.3090 C.ar  164  PHE164     -0.0003
     75  CE2       51.4490   36.3140   41.6470 C.ar  164  PHE164     -0.0003
     76  CZ        50.0870   36.5760   41.5830 C.ar  164  PHE164     -0.0000
     77  N         46.5380   40.2490   44.5350 N.3   190  ASN190     -0.1240
     78  CA        46.7840   39.6820   45.8600 C.3   190  ASN190      0.1653
     79  C         46.6380   40.7770   46.9200 C.2   190  ASN190      0.2266
     80  O         46.5780   41.9930   46.5960 O.2   190  ASN190     -0.2867
     81  CB        48.1370   38.9130   45.9760 C.3   190  ASN190      0.1155
     82  CG        49.3840   39.7700   46.1880 C.2   190  ASN190      0.2627
     83  OD1       49.3900   40.9660   45.9140 O.2   190  ASN190     -0.2716
     84  ND2       50.4650   39.1520   46.6680 N.am  190  ASN190     -0.0877
     85  N         43.5000   36.5230   48.5770 N.3   215  ASP215     -0.1239
     86  CA        44.2870   35.6730   49.5070 C.3   215  ASP215      0.1674
     87  C         43.6260   35.4990   50.8550 C.2   215  ASP215      0.2266
     88  O         43.6050   34.3920   51.3860 O.2   215  ASP215     -0.2867
     89  CB        45.7250   36.1480   49.7760 C.3   215  ASP215      0.1410
     90  CG        46.6690   35.9130   48.6120 C.2   215  ASP215      0.3668
     91  OD1       46.2710   35.2980   47.5960 O.co2 215  ASP215     -0.2456
     92  OD2       47.8060   36.3700   48.7070 O.co2 215  ASP215     -0.2456
     93  N         41.9370   32.3860   50.1950 N.3   235  GLN235     -0.1245
     94  CA        42.4680   31.0800   49.8260 C.3   235  GLN235      0.1566
     95  C         42.8130   30.3860   51.1090 C.2   235  GLN235      0.2260
     96  O         42.7680   30.9980   52.1740 O.2   235  GLN235     -0.2867
     97  CB        43.7570   31.2120   49.0230 C.3   235  GLN235      0.0367
     98  CG        43.5860   31.8070   47.6580 C.3   235  GLN235      0.0905
     99  CD        44.8300   31.6310   46.8290 C.2   235  GLN235      0.2608
    100  OE1       45.0130   30.6040   46.1940 O.2   235  GLN235     -0.2717
    101  NE2       45.6970   32.6350   46.8400 N.am  235  GLN235     -0.0878
@<TRIPOS>BOND
     1    58    57    2
     2    57    56    1
     3    55    56    1
     4    56    59    1
     5    50    51    1
     6    53    52    2
     7    52    51    1
     8    59    60    1
     9    51    54    1
    10    41    42    2
    11    41    40    1
    12    60    61    1
    13    43    40    1
    14    43    44    1
    15    40    39    1
    16    61    62    1
    17    44    45    1
    18    45    46    1
    19    76    75   ar
    20    76    74   ar
    21    75    73   ar
    22    62    63    2
    23    39    33   am
    24    34    33    2
    25    46    47    2
    26    48    47    1
    27    74    72   ar
    28    73    71   ar
    29    47    49    1
    30    33    32    1
    31    66    67    1
    32    63    64    1
    33    63    65    1
    34    72    71   ar
    35    71    70    1
    36    67    70    1
    37    67    68    1
    38    32    31    1
    39    32    35    1
    40    77    78    1
    41    38    36   ar
    42    36    37   ar
    43    36    35    1
    44    68    69    2
    45    78    81    1
    46    78    79    1
    47    83    82    2
    48    81    82    1
    49    82    84   am
    50   100    99    2
    51    80    79    2
    52    30    29   ar
    53    30    28   ar
    54    99   101   am
    55    99    98    1
    56    29    27   ar
    57    28    26   ar
    58    91    90   ar
    59    98    97    1
    60    18    19   ar
    61    18    16   ar
    62     8     6   am
    63    27    25   ar
    64    19    17   ar
    65    85    86    1
    66    90    92   ar
    67    90    89    1
    68    26    25   ar
    69    97    94    1
    70    16    14   ar
    71    25    24    1
    72    17    15   ar
    73    86    89    1
    74    86    87    1
    75     6     5    1
    76     6     7    2
    77    94    93    1
    78    94    95    1
    79    14    15   ar
    80    14    13    1
    81     5     2    1
    82    24    21    1
    83    13    10    1
    84    87    88    2
    85    95    96    2
    86    21    20    1
    87    21    22    1
    88     2     1    1
    89     2     3    1
    90    20    11   am
    91    10    11    1
    92    10     9    1
    93    11    12    2
    94     3     4    2
    95    22    23    2
