@<TRIPOS>MOLECULE
tmp/2drjA00.pdb
 181 172 0 0 0
SMALL
GASTEIGER

@<TRIPOS>ATOM
      1  N        -10.7300  -34.2090    0.6330 N.3     7  GLY7       -0.1210
      2  CA       -10.7850  -34.1970   -0.8340 C.3     7  GLY7        0.1956
      3  C        -12.0740  -34.9400   -1.2090 C.2     7  GLY7        0.2612
      4  O        -12.8990  -35.3170   -0.3540 O.2     7  GLY7       -0.2717
      5  N        -12.2600  -35.1930   -2.4850 N.am    8  ASN8       -0.1960
      6  CA       -13.4850  -35.8730   -2.9020 C.3     8  ASN8        0.1819
      7  C        -13.1880  -37.1630   -3.6890 C.2     8  ASN8        0.2622
      8  O        -13.9490  -37.5490   -4.6190 O.2     8  ASN8       -0.2715
      9  CB       -14.3150  -34.9020   -3.7470 C.3     8  ASN8        0.1195
     10  CG       -14.6420  -33.6390   -2.9950 C.2     8  ASN8        0.2630
     11  OD1      -15.0870  -33.6930   -1.8540 O.2     8  ASN8       -0.2716
     12  ND2      -14.3350  -32.4950   -3.6060 N.am    8  ASN8       -0.0877
     13  N        -12.0630  -37.7990   -3.3180 N.am    9  GLY9       -0.1940
     14  CA       -11.6490  -39.0680   -3.9110 C.3     9  GLY9        0.1998
     15  C        -12.6620  -40.1050   -3.5260 C.2     9  GLY9        0.2480
     16  O        -13.4520  -39.8760   -2.6220 O.2     9  GLY9       -0.2729
     17  N        -12.6120  -41.2800   -4.1700 N.am   10  PRO10      -0.2726
     18  CA       -13.5520  -42.3350   -3.8300 C.3    10  PRO10       0.1402
     19  C        -13.6210  -42.6400   -2.3200 C.2    10  PRO10       0.2269
     20  O        -14.6880  -43.0080   -1.8320 O.2    10  PRO10      -0.2865
     21  CB       -13.0290  -43.5360   -4.6300 C.3    10  PRO10       0.0296
     22  CG       -12.2850  -42.9380   -5.7810 C.3    10  PRO10       0.0237
     23  CD       -11.6570  -41.6960   -5.2210 C.3    10  PRO10       0.0939
     24  N        -13.7970  -28.9400   -0.4780 N.3    29  CYS29      -0.1221
     25  CA       -13.2690  -28.2210   -1.5990 C.3    29  CYS29       0.1808
     26  C        -13.9540  -28.5320   -2.8970 C.2    29  CYS29       0.2601
     27  O        -14.6330  -29.5440   -3.0320 O.2    29  CYS29      -0.2717
     28  CB       -11.7620  -28.4990   -1.7710 C.3    29  CYS29       0.0970
     29  SG       -11.3820  -30.2270   -2.2930 S.3    29  CYS29      -0.0800
     30  N        -13.7780  -27.6170   -3.8440 N.am   30  ASN30      -0.1960
     31  CA       -14.1900  -27.8200   -5.2150 C.3    30  ASN30       0.1819
     32  C        -15.6030  -28.3390   -5.3760 C.2    30  ASN30       0.2621
     33  O        -16.5300  -27.7600   -4.8740 O.2    30  ASN30      -0.2715
     34  CB       -13.1270  -28.6310   -5.9830 C.3    30  ASN30       0.1195
     35  CG       -11.7620  -27.9270   -5.9800 C.2    30  ASN30       0.2630
     36  OD1      -11.6760  -26.6870   -5.9520 O.2    30  ASN30      -0.2716
     37  ND2      -10.7110  -28.7090   -5.9060 N.am   30  ASN30      -0.0877
     38  N        -15.7540  -29.4540   -6.0800 N.am   31  GLN31      -0.1977
     39  CA       -17.0760  -30.0060   -6.3310 C.3    31  GLN31       0.1601
     40  C        -17.5250  -30.9520   -5.2530 C.2    31  GLN31       0.2287
     41  O        -18.1030  -31.9510   -5.5580 O.2    31  GLN31      -0.2864
     42  CB       -17.1300  -30.6990   -7.6860 C.3    31  GLN31       0.0394
     43  CG       -16.9760  -29.7460   -8.8410 C.3    31  GLN31       0.0908
     44  CD       -15.5070  -29.3140   -9.0980 C.2    31  GLN31       0.2608
     45  OE1      -15.1770  -28.1530   -8.9170 O.2    31  GLN31      -0.2717
     46  NE2      -14.6390  -30.2600   -9.5110 N.am   31  GLN31      -0.0878
     47  N        -10.7580  -23.2790   -6.3130 N.3    50  ASN50      -0.1240
     48  CA        -9.6420  -22.9050   -7.1500 C.3    50  ASN50       0.1653
     49  C         -9.9240  -21.5610   -7.7370 C.2    50  ASN50       0.2266
     50  O        -11.0730  -21.2560   -8.0870 O.2    50  ASN50      -0.2867
     51  CB        -9.4260  -23.9740   -8.2440 C.3    50  ASN50       0.1155
     52  CG        -8.8060  -25.2620   -7.6780 C.2    50  ASN50       0.2627
     53  OD1       -8.4370  -25.3180   -6.4940 O.2    50  ASN50      -0.2716
     54  ND2       -8.7320  -26.3050   -8.4860 N.am   50  ASN50      -0.0877
     55  N         -9.5590  -20.3750  -10.5900 N.3    52  SER52      -0.1202
     56  CA       -10.0310  -20.2740  -12.0050 C.3    52  SER52       0.2020
     57  C        -11.5380  -20.5250  -12.1490 C.2    52  SER52       0.2618
     58  O        -12.1620  -20.1790  -13.1950 O.2    52  SER52      -0.2717
     59  CB        -9.2720  -21.2580  -12.9340 C.3    52  SER52       0.2103
     60  OG        -9.3930  -22.5880  -12.4430 O.3    52  SER52      -0.2182
     61  N        -12.1300  -21.1400  -11.1280 N.am   53  LEU53      -0.1979
     62  CA       -13.5860  -21.2800  -11.1260 C.3    53  LEU53       0.1596
     63  C        -14.2100  -20.5690   -9.9520 C.2    53  LEU53       0.2287
     64  O        -15.3560  -20.8230   -9.6690 O.2    53  LEU53      -0.2864
     65  CB       -14.0110  -22.7380  -11.1160 C.3    53  LEU53       0.0297
     66  CG       -13.5440  -23.5390  -12.3250 C.3    53  LEU53       0.0022
     67  CD1      -13.9710  -25.0050  -12.1580 C.3    53  LEU53       0.0001
     68  CD2      -14.1120  -22.9470  -13.5860 C.3    53  LEU53       0.0001
     69  N        -18.0790  -20.9500   -8.6180 N.3    57  GLN57      -0.1245
     70  CA       -18.2720  -21.6490   -7.3190 C.3    57  GLN57       0.1566
     71  C        -18.9070  -20.8190   -6.2390 C.2    57  GLN57       0.2260
     72  O        -19.6690  -21.3060   -5.4040 O.2    57  GLN57      -0.2867
     73  CB       -16.9280  -22.1890   -6.8110 C.3    57  GLN57       0.0367
     74  CG       -16.3520  -23.2960   -7.7400 C.3    57  GLN57       0.0905
     75  CD       -17.0530  -24.6840   -7.6760 C.2    57  GLN57       0.2608
     76  OE1      -16.4330  -25.6730   -8.0580 O.2    57  GLN57      -0.2717
     77  NE2      -18.2770  -24.7630   -7.1160 N.am   57  GLN57      -0.0878
     78  N          0.8830  -29.1720   -5.4740 N.3   129  ILE129     -0.1231
     79  CA         0.0460  -29.8540   -4.4830 C.3   129  ILE129      0.1692
     80  C         -1.4470  -29.8260   -4.8180 C.2   129  ILE129      0.2593
     81  O         -1.9050  -29.0250   -5.6780 O.2   129  ILE129     -0.2718
     82  CB         0.2460  -29.2900   -3.0960 C.3   129  ILE129      0.0266
     83  CG1       -0.2810  -27.8180   -2.9920 C.3   129  ILE129      0.0019
     84  CG2        1.7360  -29.4440   -2.6950 C.3   129  ILE129      0.0020
     85  CD1       -0.1550  -27.2010   -1.5850 C.3   129  ILE129      0.0001
     86  N         -2.2120  -30.7270   -4.1910 N.am  130  THR130     -0.1939
     87  CA        -3.6530  -30.7580   -4.4550 C.3   130  THR130      0.2028
     88  C         -4.3070  -29.9810   -3.3660 C.2   130  THR130      0.2643
     89  O         -3.6860  -29.7210   -2.3400 O.2   130  THR130     -0.2714
     90  CB        -4.2290  -32.2040   -4.4690 C.3   130  THR130      0.1808
     91  OG1       -3.8390  -32.8810   -3.2600 O.3   130  THR130     -0.2208
     92  CG2       -3.8000  -32.9840   -5.6990 C.3   130  THR130      0.0379
     93  N         -5.5980  -29.6970   -3.5440 N.am  131  SER131     -0.1935
     94  CA        -6.3990  -28.8820   -2.5840 C.3   131  SER131      0.2055
     95  C         -6.3020  -29.4450   -1.2180 C.2   131  SER131      0.2643
     96  O         -6.2270  -28.6870   -0.2830 O.2   131  SER131     -0.2714
     97  CB        -7.9010  -28.8080   -2.9690 C.3   131  SER131      0.2130
     98  OG        -8.0150  -28.1730   -4.2210 O.3   131  SER131     -0.2179
     99  N         -6.3260  -30.7750   -1.0860 N.am  132  GLY132     -0.1954
    100  CA        -6.2470  -31.4090    0.2290 C.3   132  GLY132      0.1869
    101  C         -5.0220  -31.0370    1.0490 C.2   132  GLY132      0.2309
    102  O         -5.1100  -30.8440    2.2570 O.2   132  GLY132     -0.2863
    103  N        -10.9100  -38.7010    1.6210 N.3   151  GLY151     -0.1210
    104  CA       -11.1200  -38.3510    0.2190 C.3   151  GLY151      0.1956
    105  C         -9.8610  -37.9330   -0.5220 C.2   151  GLY151      0.2612
    106  O         -9.9140  -37.2650   -1.5690 O.2   151  GLY151     -0.2717
    107  N         -8.7150  -38.3350    0.0020 N.am  152  ILE152     -0.1965
    108  CA        -7.4320  -38.1400   -0.6850 C.3   152  ILE152      0.1727
    109  C         -6.8560  -39.5030   -1.1160 C.2   152  ILE152      0.2616
    110  O         -6.5620  -40.3750   -0.2670 O.2   152  ILE152     -0.2715
    111  CB        -6.4210  -37.3730    0.1830 C.3   152  ILE152      0.0290
    112  CG1       -7.0110  -36.0200    0.6580 C.3   152  ILE152      0.0022
    113  CG2       -5.0960  -37.2570   -0.5660 C.3   152  ILE152      0.0023
    114  CD1       -6.1930  -35.3330    1.7510 C.3   152  ILE152      0.0001
    115  N         -6.6810  -39.6600   -2.4280 N.am  153  ASP153     -0.1957
    116  CA        -6.5650  -40.9820   -3.0270 C.3   153  ASP153      0.1840
    117  C         -5.4340  -41.3550   -4.0010 C.2   153  ASP153      0.2622
    118  O         -5.0220  -42.5050   -3.9970 O.2   153  ASP153     -0.2715
    119  CB        -7.9300  -41.4200   -3.5560 C.3   153  ASP153      0.1450
    120  CG        -8.8520  -41.8460   -2.4280 C.2   153  ASP153      0.3671
    121  OD1      -10.0030  -41.3650   -2.3330 O.co2 153  ASP153     -0.2456
    122  OD2       -8.3810  -42.6280   -1.5710 O.co2 153  ASP153     -0.2456
    123  N         -4.9130  -40.4480   -4.8210 N.am  154  PHE154     -0.1960
    124  CA        -3.7720  -40.8380   -5.7210 C.3   154  PHE154      0.1771
    125  C         -4.1200  -41.9080   -6.8210 C.2   154  PHE154      0.2619
    126  O         -3.7510  -43.1120   -6.7170 O.2   154  PHE154     -0.2715
    127  CB        -2.4860  -41.3200   -4.9500 C.3   154  PHE154      0.0574
    128  CG        -2.2810  -40.6990   -3.5920 C.ar  154  PHE154     -0.0200
    129  CD1       -1.9320  -39.3730   -3.4580 C.ar  154  PHE154     -0.0042
    130  CD2       -2.4190  -41.4610   -2.4470 C.ar  154  PHE154     -0.0042
    131  CE1       -1.7420  -38.8160   -2.2090 C.ar  154  PHE154     -0.0003
    132  CE2       -2.2310  -40.9100   -1.1840 C.ar  154  PHE154     -0.0003
    133  CZ        -1.9000  -39.5960   -1.0640 C.ar  154  PHE154     -0.0000
    134  N         -4.8650  -41.4980   -7.8460 N.am  155  TYR155     -0.1974
    135  CA        -5.6290  -40.2570   -7.8450 C.3   155  TYR155      0.1639
    136  C         -7.0610  -40.6070   -8.2770 C.2   155  TYR155      0.2290
    137  O         -7.3080  -40.9390   -9.4520 O.2   155  TYR155     -0.2864
    138  CB        -5.0210  -39.1960   -8.7850 C.3   155  TYR155      0.0560
    139  CG        -5.7020  -37.8630   -8.5850 C.ar  155  TYR155     -0.0198
    140  CD1       -5.1930  -36.9560   -7.6670 C.ar  155  TYR155     -0.0009
    141  CD2       -6.8950  -37.5400   -9.2590 C.ar  155  TYR155     -0.0009
    142  CE1       -5.8240  -35.7340   -7.4320 C.ar  155  TYR155      0.0417
    143  CE2       -7.5470  -36.3120   -9.0320 C.ar  155  TYR155      0.0417
    144  CZ        -6.9920  -35.4170   -8.1160 C.ar  155  TYR155      0.1957
    145  OH        -7.5700  -34.2090   -7.8400 O.3   155  TYR155     -0.2866
    146  N        -18.3160  -37.5170  -11.7600 N.3   156  THR156     -0.1218
    147  CA       -18.1550  -36.0620  -11.7290 C.3   156  THR156      0.1862
    148  C        -18.5830  -35.4000  -13.0390 C.2   156  THR156      0.2287
    149  O        -18.8300  -34.1920  -13.0570 O.2   156  THR156     -0.2866
    150  CB       -16.6770  -35.6300  -11.3560 C.3   156  THR156      0.1770
    151  OG1      -16.5180  -34.2000  -11.4840 O.3   156  THR156     -0.2211
    152  CG2      -15.6010  -36.3770  -12.2270 C.3   156  THR156      0.0375
    153  N        -19.9420  -28.2310  -15.4000 N.3   161  LEU161     -0.1245
    154  CA       -18.5440  -28.3780  -14.9920 C.3   161  LEU161      0.1561
    155  C        -17.6490  -28.6920  -16.2020 C.2   161  LEU161      0.2260
    156  O        -16.6120  -28.0160  -16.4090 O.2   161  LEU161     -0.2867
    157  CB       -18.3680  -29.3900  -13.8510 C.3   161  LEU161      0.0270
    158  CG       -16.9030  -29.5540  -13.4920 C.3   161  LEU161      0.0019
    159  CD1      -16.3540  -28.2360  -12.9030 C.3   161  LEU161      0.0001
    160  CD2      -16.7250  -30.6830  -12.5650 C.3   161  LEU161      0.0001
    161  N        -14.4630  -26.2590  -17.2470 N.3   165  ALA165     -0.1245
    162  CA       -13.1660  -26.9220  -17.2140 C.3   165  ALA165      0.1562
    163  C        -13.2280  -28.1980  -18.0870 C.2   165  ALA165      0.2260
    164  O        -13.4960  -29.2970  -17.5810 O.2   165  ALA165     -0.2867
    165  CB       -12.7720  -27.2510  -15.7630 C.3   165  ALA165      0.0290
    166  N        -11.6070  -30.5190  -18.6270 N.3   167  ASN167     -0.1240
    167  CA       -10.5420  -31.4160  -18.1350 C.3   167  ASN167      0.1653
    168  C        -11.0780  -32.6300  -17.3530 C.2   167  ASN167      0.2266
    169  O        -10.4190  -33.6870  -17.3030 O.2   167  ASN167     -0.2867
    170  CB        -9.5340  -30.6500  -17.2600 C.3   167  ASN167      0.1155
    171  CG        -8.8650  -29.4710  -17.9950 C.2   167  ASN167      0.2627
    172  OD1       -7.7070  -29.5750  -18.4330 O.2   167  ASN167     -0.2716
    173  ND2       -9.5910  -28.3420  -18.1170 N.am  167  ASN167     -0.0877
    174  N          2.3610  -34.7630   -2.9070 N.3   171  ASP171     -0.1239
    175  CA         1.4070  -34.6440   -1.7830 C.3   171  ASP171      0.1674
    176  C          1.8580  -35.2110   -0.4670 C.2   171  ASP171      0.2266
    177  O          1.7440  -34.5440    0.5890 O.2   171  ASP171     -0.2867
    178  CB         0.0630  -35.2700   -2.1460 C.3   171  ASP171      0.1410
    179  CG        -0.8380  -34.3020   -2.9570 C.2   171  ASP171      0.3668
    180  OD1       -2.0170  -34.6860   -3.1770 O.co2 171  ASP171     -0.2456
    181  OD2       -0.3740  -33.1860   -3.3740 O.co2 171  ASP171     -0.2456
@<TRIPOS>BOND
     1   166   167    1
     2   172   171    2
     3   167   168    1
     4   167   170    1
     5   173   171   am
     6   163   164    2
     7   163   162    1
     8   171   170    1
     9   168   169    2
    10   161   162    1
    11   162   165    1
    12   156   155    2
    13   155   154    1
    14   153   154    1
    15   154   157    1
    16   157   158    1
    17    68    66    1
    18   158   159    1
    19   158   160    1
    20    58    57    2
    21   149   148    2
    22   148   147    1
    23    59    60    1
    24    59    56    1
    25    66    67    1
    26    66    65    1
    27   152   150    1
    28    57    56    1
    29    57    61   am
    30    56    55    1
    31   146   147    1
    32   147   150    1
    33   151   150    1
    34    61    62    1
    35    62    65    1
    36    62    63    1
    37    63    64    2
    38    46    44   am
    39   137   136    2
    40   141   143   ar
    41   141   139   ar
    42    44    45    2
    43    44    43    1
    44   143   144   ar
    45    43    42    1
    46   138   139    1
    47   138   135    1
    48    69    70    1
    49   139   140   ar
    50    54    52   am
    51   136   135    1
    52    51    52    1
    53    51    48    1
    54   144   145    1
    55   144   142   ar
    56    50    49    2
    57    76    75    2
    58   134   135    1
    59   134   125   am
    60    74    75    1
    61    74    73    1
    62    49    48    1
    63    42    39    1
    64    52    53    2
    65    75    77   am
    66   140   142   ar
    67    70    73    1
    68    70    71    1
    69    48    47    1
    70   125   126    2
    71   125   124    1
    72    39    38    1
    73    39    40    1
    74    71    72    2
    75    38    32   am
    76    34    35    1
    77    34    31    1
    78    35    36    2
    79    35    37   am
    80    22    23    1
    81    22    21    1
    82   124   127    1
    83   124   123    1
    84    92    90    1
    85    81    80    2
    86    41    40    2
    87    78    79    1
    88    32    31    1
    89    32    33    2
    90    23    17    1
    91    31    30    1
    92   127   128    1
    93   123   117   am
    94    80    79    1
    95    80    86   am
    96    21    18    1
    97     8     7    2
    98    79    82    1
    99    90    87    1
   100    90    91    1
   101    87    86    1
   102    87    88    1
   103    98    97    1
   104    17    18    1
   105    17    15   am
   106   117   118    2
   107   117   116    1
   108    14    15    1
   109    14    13    1
   110    30    26   am
   111    18    19    1
   112     9    10    1
   113     9     6    1
   114     7    13   am
   115     7     6    1
   116    12    10   am
   117   128   129   ar
   118   128   130   ar
   119   119   116    1
   120   119   120    1
   121    93    88   am
   122    93    94    1
   123    15    16    2
   124   129   131   ar
   125   181   179   ar
   126    88    89    2
   127   180   179   ar
   128    82    83    1
   129    82    84    1
   130    27    26    2
   131   116   115    1
   132    10    11    2
   133    83    85    1
   134    97    94    1
   135   179   178    1
   136   174   175    1
   137     6     5    1
   138    26    25    1
   139    94    95    1
   140     5     3   am
   141   130   132   ar
   142   120   121   ar
   143   120   122   ar
   144   115   109   am
   145    19    20    2
   146    29    28    1
   147   131   133   ar
   148   178   175    1
   149   175   176    1
   150    28    25    1
   151    25    24    1
   152   106   105    2
   153    95    99   am
   154    95    96    2
   155     3     2    1
   156     3     4    2
   157   132   133   ar
   158   109   108    1
   159   109   110    2
   160    99   100    1
   161     2     1    1
   162   108   107    1
   163   108   111    1
   164   113   111    1
   165   105   107   am
   166   105   104    1
   167   176   177    2
   168   111   112    1
   169   104   103    1
   170   100   101    1
   171   112   114    1
   172   101   102    2
