@<TRIPOS>MOLECULE
tmp/2ds0A00.pdb
 106 101 0 0 0
SMALL
GASTEIGER

@<TRIPOS>ATOM
      1  N        -10.5920   -3.3960   20.5930 N.3    16  ASP16      -0.1225
      2  CA       -11.9460   -3.8050   20.2760 C.3    16  ASP16       0.1805
      3  C        -12.8480   -2.5860   20.1030 C.2    16  ASP16       0.2598
      4  O        -12.8230   -1.6790   20.9310 O.2    16  ASP16      -0.2718
      5  CB       -12.3900   -4.6740   21.4660 C.3    16  ASP16       0.1424
      6  CG       -13.8490   -5.0430   21.4450 C.2    16  ASP16       0.3668
      7  OD1      -14.7070   -4.1500   21.2990 O.co2  16  ASP16      -0.2456
      8  OD2      -14.1280   -6.2460   21.6120 O.co2  16  ASP16      -0.2456
      9  N        -13.6290   -2.5530   19.0240 N.am   17  ILE17      -0.1966
     10  CA       -14.5480   -1.4400   18.8140 C.3    17  ILE17       0.1727
     11  C        -15.7340   -1.7120   19.7310 C.2    17  ILE17       0.2617
     12  O        -16.5210   -2.6290   19.4900 O.2    17  ILE17      -0.2715
     13  CB       -15.0280   -1.3590   17.3520 C.3    17  ILE17       0.0290
     14  CG1      -13.8240   -1.1670   16.4270 C.3    17  ILE17       0.0022
     15  CG2      -15.9930   -0.1820   17.1800 C.3    17  ILE17       0.0023
     16  CD1      -14.1700   -1.1950   14.9540 C.3    17  ILE17       0.0001
     17  N        -15.8340   -0.9230   20.7980 N.am   18  GLY18      -0.1940
     18  CA       -16.8950   -1.0920   21.7750 C.3    18  GLY18       0.2014
     19  C        -18.2680   -1.4400   21.2350 C.2    18  GLY18       0.2639
     20  O        -18.7970   -0.7420   20.3700 O.2    18  GLY18      -0.2714
     21  N        -18.8390   -2.5270   21.7550 N.am   19  GLY19      -0.1939
     22  CA       -20.1620   -2.9650   21.3410 C.3    19  GLY19       0.2014
     23  C        -20.3000   -3.2450   19.8590 C.2    19  GLY19       0.2639
     24  O        -21.4160   -3.3230   19.3380 O.2    19  GLY19      -0.2714
     25  N        -19.1660   -3.4030   19.1830 N.am   20  GLN20      -0.1963
     26  CA       -19.1450   -3.6720   17.7510 C.3    20  GLN20       0.1733
     27  C        -19.8650   -2.5590   16.9930 C.2    20  GLN20       0.2616
     28  O        -20.3790   -2.7710   15.8950 O.2    20  GLN20      -0.2715
     29  CB       -19.8140   -5.0190   17.4630 C.3    20  GLN20       0.0408
     30  CG       -19.4270   -6.1060   18.4510 C.3    20  GLN20       0.0908
     31  CD       -20.0990   -7.4320   18.1650 C.2    20  GLN20       0.2608
     32  OE1      -20.5860   -7.5990   16.9390 O.2    20  GLN20      -0.2717
     33  NE2      -20.1730   -8.3020   19.0370 N.am   20  GLN20      -0.0878
     34  N        -19.9010   -1.3700   17.5860 N.am   21  ASN21      -0.1972
     35  CA       -20.5570   -0.2310   16.9580 C.3    21  ASN21       0.1688
     36  C        -19.8320    0.1150   15.6580 C.2    21  ASN21       0.2292
     37  O        -18.6430    0.4400   15.6690 O.2    21  ASN21      -0.2864
     38  CB       -20.5290    0.9770   17.8910 C.3    21  ASN21       0.1181
     39  CG       -21.5190    2.0440   17.4860 C.2    21  ASN21       0.2629
     40  OD1      -21.7980    2.2340   16.2990 O.2    21  ASN21      -0.2716
     41  ND2      -22.0490    2.7590   18.4700 N.am   21  ASN21      -0.0877
     42  N        -16.8210    5.7970   17.2730 N.3    26  SER26      -0.1202
     43  CA       -17.0170    4.7530   18.2740 C.3    26  SER26       0.2020
     44  C        -15.7040    4.4990   19.0100 C.2    26  SER26       0.2618
     45  O        -14.6620    4.3120   18.3830 O.2    26  SER26      -0.2717
     46  CB       -17.5030    3.4640   17.6090 C.3    26  SER26       0.2103
     47  OG       -18.7820    3.6470   17.0220 O.3    26  SER26      -0.2182
     48  N        -15.7610    4.4770   20.3380 N.am   27  LYS27      -0.1979
     49  CA       -14.5590    4.2800   21.1370 C.3    27  LYS27       0.1596
     50  C        -13.9480    2.9000   20.9730 C.2    27  LYS27       0.2287
     51  O        -14.6610    1.9020   20.8460 O.2    27  LYS27      -0.2864
     52  CB       -14.8530    4.5270   22.6230 C.3    27  LYS27       0.0298
     53  CG       -15.7230    3.4670   23.2840 C.3    27  LYS27       0.0038
     54  CD       -16.0030    3.7700   24.7630 C.3    27  LYS27       0.0206
     55  CE       -14.7410    3.7240   25.6230 C.3    27  LYS27       0.1093
     56  NZ       -13.7300    4.7660   25.2670 N.3    27  LYS27      -0.1314
     57  N        -11.7380    0.1270   22.7590 N.3    29  ILE29      -0.1245
     58  CA       -11.3440   -0.3100   24.0930 C.3    29  ILE29       0.1561
     59  C        -10.5130   -1.5830   23.9650 C.2    29  ILE29       0.2260
     60  O        -10.1760   -2.0020   22.8570 O.2    29  ILE29      -0.2867
     61  CB       -12.5910   -0.6630   24.9390 C.3    29  ILE29       0.0252
     62  CG1      -13.3340   -1.8350   24.2790 C.3    29  ILE29       0.0019
     63  CG2      -13.5210    0.5470   25.0510 C.3    29  ILE29       0.0019
     64  CD1      -14.4720   -2.4120   25.1000 C.3    29  ILE29       0.0001
     65  N        -10.6750   -5.5420   25.1440 N.3    31  TRP31      -0.1241
     66  CA       -11.6430   -6.5100   25.6410 C.3    31  TRP31       0.1605
     67  C        -11.1060   -7.9190   25.4230 C.2    31  TRP31       0.2264
     68  O        -10.2210   -8.1280   24.6010 O.2    31  TRP31      -0.2867
     69  CB       -12.9870   -6.3040   24.9160 C.3    31  TRP31       0.0550
     70  CG       -14.0290   -7.3570   25.1770 C.ar   31  TRP31       0.0003
     71  CD1      -14.2120   -8.5220   24.4840 C.ar   31  TRP31       0.0946
     72  CD2      -15.0200   -7.3440   26.2070 C.ar   31  TRP31       0.0152
     73  NE1      -15.2560   -9.2340   25.0190 N.ar   31  TRP31      -0.2442
     74  CE2      -15.7710   -8.5340   26.0790 C.ar   31  TRP31       0.0810
     75  CE3      -15.3490   -6.4420   27.2260 C.ar   31  TRP31       0.0012
     76  CZ2      -16.8310   -8.8480   26.9340 C.ar   31  TRP31       0.0191
     77  CZ3      -16.4040   -6.7520   28.0770 C.ar   31  TRP31       0.0001
     78  CH2      -17.1330   -7.9470   27.9240 C.ar   31  TRP31       0.0015
     79  N        -11.7440  -12.5780   21.3870 N.3    34  LYS34      -0.1245
     80  CA       -12.8200  -13.4490   20.9300 C.3    34  LYS34       0.1561
     81  C        -12.3320  -14.2470   19.7290 C.2    34  LYS34       0.2260
     82  O        -11.3490  -13.8830   19.0920 O.2    34  LYS34      -0.2867
     83  CB       -14.0470  -12.6210   20.5270 C.3    34  LYS34       0.0271
     84  CG       -14.6330  -11.7710   21.6540 C.3    34  LYS34       0.0035
     85  CD       -15.9060  -11.0420   21.2280 C.3    34  LYS34       0.0206
     86  CE       -15.6330   -9.9510   20.2040 C.3    34  LYS34       0.1093
     87  NZ       -16.8960   -9.2850   19.7610 N.3    34  LYS34      -0.1314
     88  N        -15.0760   -7.1880   15.2120 N.3    41  ASN41      -0.1240
     89  CA       -14.7510   -5.8810   15.7780 C.3    41  ASN41       0.1653
     90  C        -13.4110   -5.8510   16.5140 C.2    41  ASN41       0.2266
     91  O        -13.0390   -4.8320   17.0960 O.2    41  ASN41      -0.2867
     92  CB       -15.8770   -5.4090   16.7040 C.3    41  ASN41       0.1155
     93  CG       -15.9940   -6.2440   17.9560 C.2    41  ASN41       0.2627
     94  OD1      -15.9490   -7.4730   17.9040 O.2    41  ASN41      -0.2716
     95  ND2      -16.1610   -5.5790   19.0930 N.am   41  ASN41      -0.0877
     96  N        -15.1290    0.3740   34.0610 N.3   108  ALA108     -0.1231
     97  CA       -15.4170    0.0980   32.6600 C.3   108  ALA108      0.1694
     98  C        -14.2260   -0.6000   32.0160 C.2   108  ALA108      0.2592
     99  O        -13.2510   -0.9360   32.6880 O.2   108  ALA108     -0.2718
    100  CB       -15.7160    1.4000   31.9230 C.3   108  ALA108      0.0304
    101  N        -14.3120   -0.8360   30.7130 N.am  109  SER109     -0.1952
    102  CA       -13.2070   -1.4630   30.0020 C.3   109  SER109      0.1924
    103  C        -12.1300   -0.4050   29.7920 C.2   109  SER109      0.2314
    104  O        -12.4240    0.7890   29.7710 O.2   109  SER109     -0.2863
    105  CB       -13.6750   -2.0030   28.6510 C.3   109  SER109      0.2116
    106  OG       -14.4690   -3.1650   28.8200 O.3   109  SER109     -0.2180
@<TRIPOS>BOND
     1    16    14    1
     2    88    89    1
     3    36    37    2
     4    36    35    1
     5    89    90    1
     6    89    92    1
     7    28    27    2
     8    40    39    2
     9    14    13    1
    10    90    91    2
    11    92    93    1
    12    32    31    2
    13    35    34    1
    14    35    38    1
    15    27    34   am
    16    27    26    1
    17    47    46    1
    18    15    13    1
    19    42    43    1
    20    13    10    1
    21    29    26    1
    22    29    30    1
    23    39    38    1
    24    39    41   am
    25    46    43    1
    26    26    25    1
    27    94    93    2
    28    93    95   am
    29    31    30    1
    30    31    33   am
    31    43    44    1
    32    45    44    2
    33    10     9    1
    34    10    11    1
    35    44    48   am
    36     9     3   am
    37    82    81    2
    38    25    23   am
    39    24    23    2
    40    12    11    2
    41    81    80    1
    42    11    17   am
    43    87    86    1
    44    23    22    1
    45     3     2    1
    46     3     4    2
    47    86    85    1
    48     2     1    1
    49     2     5    1
    50    48    49    1
    51    20    19    2
    52    83    80    1
    53    83    84    1
    54    17    18    1
    55    51    50    2
    56    80    79    1
    57    50    49    1
    58    49    52    1
    59    85    84    1
    60    19    21   am
    61    19    18    1
    62     7     6   ar
    63    22    21    1
    64     6     5    1
    65     6     8   ar
    66    52    53    1
    67    57    58    1
    68    60    59    2
    69    53    54    1
    70    59    58    1
    71    58    61    1
    72    62    61    1
    73    62    64    1
    74    71    73   ar
    75    71    70   ar
    76    68    67    2
    77    54    55    1
    78    69    70    1
    79    69    66    1
    80    61    63    1
    81    73    74   ar
    82    65    66    1
    83    70    72   ar
    84    56    55    1
    85    67    66    1
    86    74    72   ar
    87    74    76   ar
    88    72    75   ar
    89    76    78   ar
    90    75    77   ar
    91    78    77   ar
    92   105   106    1
    93   105   102    1
    94   104   103    2
    95   103   102    1
    96   102   101    1
    97   101    98   am
    98   100    97    1
    99    98    97    1
   100    98    99    2
   101    97    96    1
