@<TRIPOS>MOLECULE
tmp/2ds1A00.pdb
 162 156 0 0 0
SMALL
GASTEIGER

@<TRIPOS>ATOM
      1  N        -15.4770    5.4940   13.6260 N.3    10  ILE10      -0.1231
      2  CA       -14.6290    5.7310   12.4620 C.3    10  ILE10       0.1692
      3  C        -13.1720    5.3130   12.6020 C.2    10  ILE10       0.2593
      4  O        -12.4280    5.3240   11.6260 O.2    10  ILE10      -0.2718
      5  CB       -14.6640    7.2170   12.0350 C.3    10  ILE10       0.0266
      6  CG1      -14.1750    8.1050   13.1790 C.3    10  ILE10       0.0019
      7  CG2      -16.0710    7.5980   11.6100 C.3    10  ILE10       0.0020
      8  CD1      -14.1900    9.5850   12.8520 C.3    10  ILE10       0.0001
      9  N        -12.7530    4.9440   13.8030 N.am   11  GLY11      -0.1942
     10  CA       -11.3740    4.5430   13.9690 C.3    11  GLY11       0.2014
     11  C        -11.0120    4.1870   15.3890 C.2    11  GLY11       0.2639
     12  O        -11.8430    4.2330   16.2950 O.2    11  GLY11      -0.2714
     13  N         -9.7550    3.8200   15.5800 N.am   12  GLU12      -0.1963
     14  CA        -9.2680    3.4540   16.8940 C.3    12  GLU12       0.1733
     15  C         -7.8900    4.0470   17.0720 C.2    12  GLU12       0.2617
     16  O         -6.8960    3.4810   16.6220 O.2    12  GLU12      -0.2715
     17  CB        -9.2350    1.9320   17.0330 C.3    12  GLU12       0.0429
     18  CG       -10.6340    1.3030   16.9100 C.3    12  GLU12       0.1163
     19  CD       -10.6200   -0.2050   17.0290 C.2    12  GLU12       0.3649
     20  OE1      -10.1160   -0.7160   18.0520 O.co2  12  GLU12      -0.2457
     21  OE2      -11.1200   -0.8780   16.1030 O.co2  12  GLU12      -0.2457
     22  N         -7.8500    5.2100   17.7140 N.am   13  GLY13      -0.1940
     23  CA        -6.5940    5.8910   17.9500 C.3    13  GLY13       0.2014
     24  C         -5.7090    5.1180   18.9020 C.2    13  GLY13       0.2639
     25  O         -5.9980    3.9680   19.2350 O.2    13  GLY13      -0.2714
     26  N         -4.6300    5.7540   19.3420 N.am   14  THR14      -0.1950
     27  CA        -3.6830    5.1300   20.2620 C.3    14  THR14       0.1897
     28  C         -4.2460    5.0380   21.6770 C.2    14  THR14       0.2313
     29  O         -4.0310    4.0520   22.3850 O.2    14  THR14      -0.2863
     30  CB        -2.3730    5.9500   20.3530 C.3    14  THR14       0.1794
     31  OG1       -1.9150    6.2870   19.0360 O.3    14  THR14      -0.2208
     32  CG2       -1.2970    5.1510   21.0770 C.3    14  THR14       0.0378
     33  N        -12.5450    6.2490   18.4630 N.3    18  VAL18      -0.1245
     34  CA       -12.9060    7.5280   17.8670 C.3    18  VAL18       0.1561
     35  C        -14.2120    7.3540   17.1170 C.2    18  VAL18       0.2260
     36  O        -14.3430    6.4790   16.2600 O.2    18  VAL18      -0.2867
     37  CB       -11.8180    8.0240   16.8930 C.3    18  VAL18       0.0252
     38  CG1      -12.2850    9.2900   16.1780 C.3    18  VAL18       0.0019
     39  CG2      -10.5330    8.2940   17.6640 C.3    18  VAL18       0.0019
     40  N        -15.6440   14.6060   15.4570 N.3    31  ALA31      -0.1245
     41  CA       -14.9030   13.3890   15.7560 C.3    31  ALA31       0.1562
     42  C        -14.7560   13.3560   17.2780 C.2    31  ALA31       0.2260
     43  O        -14.1040   14.2200   17.8700 O.2    31  ALA31      -0.2867
     44  CB       -13.5250   13.4180   15.0810 C.3    31  ALA31       0.0290
     45  N        -13.3620   11.5550   20.5640 N.3    33  LYS33      -0.1245
     46  CA       -12.3260   10.6290   20.9970 C.3    33  LYS33       0.1561
     47  C        -12.3940   10.3290   22.4880 C.2    33  LYS33       0.2260
     48  O        -12.4190   11.2420   23.3100 O.2    33  LYS33      -0.2867
     49  CB       -10.9550   11.2100   20.6460 C.3    33  LYS33       0.0271
     50  CG        -9.7790   10.3260   21.0160 C.3    33  LYS33       0.0035
     51  CD        -8.4720   10.9450   20.5370 C.3    33  LYS33       0.0206
     52  CE        -7.3240    9.9360   20.5820 C.3    33  LYS33       0.1093
     53  NZ        -6.0780   10.5240   20.0070 N.3    33  LYS33      -0.1314
     54  N         -5.6470   19.5700   12.8620 N.3    56  VAL56      -0.1245
     55  CA        -7.0480   19.2580   13.1150 C.3    56  VAL56       0.1561
     56  C         -7.4760   20.0160   14.3590 C.2    56  VAL56       0.2260
     57  O         -6.8680   19.8900   15.4240 O.2    56  VAL56      -0.2867
     58  CB        -7.2840   17.7530   13.3220 C.3    56  VAL56       0.0252
     59  CG1       -8.7730   17.4970   13.4340 C.3    56  VAL56       0.0019
     60  CG2       -6.7170   16.9600   12.1420 C.3    56  VAL56       0.0019
     61  N        -13.1540   16.8510   18.3200 N.3    72  PHE72      -0.1227
     62  CA       -12.3550   17.3950   17.2270 C.3    72  PHE72       0.1736
     63  C        -13.1830   17.6520   15.9700 C.2    72  PHE72       0.2595
     64  O        -14.1850   16.9820   15.7390 O.2    72  PHE72      -0.2718
     65  CB       -11.2580   16.3940   16.8490 C.3    72  PHE72       0.0547
     66  CG       -10.1250   16.3030   17.8260 C.ar   72  PHE72      -0.0202
     67  CD1       -9.0700   17.2040   17.7660 C.ar   72  PHE72      -0.0042
     68  CD2      -10.0620   15.2650   18.7440 C.ar   72  PHE72      -0.0042
     69  CE1       -7.9780   17.0690   18.5990 C.ar   72  PHE72      -0.0003
     70  CE2       -8.9640   15.1300   19.5800 C.ar   72  PHE72      -0.0003
     71  CZ        -7.9230   16.0310   19.5020 C.ar   72  PHE72      -0.0000
     72  N        -12.7470   18.5970   15.1410 N.am   73  GLU73      -0.1965
     73  CA       -13.4520   18.8440   13.8890 C.3    73  GLU73       0.1733
     74  C        -13.3380   17.5060   13.1610 C.2    73  GLU73       0.2616
     75  O        -12.3780   16.7580   13.3610 O.2    73  GLU73      -0.2715
     76  CB       -12.7500   19.9260   13.0560 C.3    73  GLU73       0.0429
     77  CG       -11.4370   19.4590   12.4170 C.3    73  GLU73       0.1163
     78  CD       -10.8330   20.4590   11.4330 C.2    73  GLU73       0.3649
     79  OE1      -11.4300   20.7010   10.3680 O.co2  73  GLU73      -0.2457
     80  OE2       -9.7490   21.0000   11.7200 O.co2  73  GLU73      -0.2457
     81  N        -14.3140   17.1930   12.3260 N.am   74  HIS74      -0.1959
     82  CA       -14.2780   15.9470   11.5870 C.3    74  HIS74       0.1787
     83  C        -13.6990   16.1640   10.1960 C.2    74  HIS74       0.2620
     84  O        -13.9950   17.1560    9.5410 O.2    74  HIS74      -0.2715
     85  CB       -15.6870   15.3570   11.4890 C.3    74  HIS74       0.0785
     86  CG       -15.7600   14.1000   10.6820 C.ar   74  HIS74       0.0821
     87  ND1      -16.1560   14.0860    9.3610 N.ar   74  HIS74      -0.2267
     88  CD2      -15.4740   12.8170   11.0040 C.ar   74  HIS74       0.1154
     89  CE1      -16.1110   12.8460    8.9060 C.ar   74  HIS74       0.1986
     90  NE2      -15.7010   12.0580    9.8820 N.ar   74  HIS74      -0.2212
     91  N        -12.8390   15.2460    9.7680 N.am   75  VAL75      -0.1963
     92  CA       -12.2360   15.3130    8.4440 C.3    75  VAL75       0.1727
     93  C        -12.5220   13.9470    7.8580 C.2    75  VAL75       0.2616
     94  O        -12.2410   12.9350    8.4860 O.2    75  VAL75      -0.2715
     95  CB       -10.7220   15.5570    8.5250 C.3    75  VAL75       0.0290
     96  CG1      -10.1650   15.7760    7.1310 C.3    75  VAL75       0.0023
     97  CG2      -10.4420   16.7700    9.4080 C.3    75  VAL75       0.0023
     98  N        -13.0600   13.9180    6.6460 N.am   76  HIS76      -0.1959
     99  CA       -13.4670   12.6690    6.0170 C.3    76  HIS76       0.1787
    100  C        -12.5460   11.4630    5.9850 C.2    76  HIS76       0.2620
    101  O        -12.9490   10.3840    6.4260 O.2    76  HIS76      -0.2715
    102  CB       -14.0140   12.9590    4.6210 C.3    76  HIS76       0.0785
    103  CG       -15.3960   13.5450    4.6390 C.ar   76  HIS76       0.0821
    104  ND1      -15.6610   14.8130    5.1150 N.ar   76  HIS76      -0.2267
    105  CD2      -16.5940   13.0130    4.3000 C.ar   76  HIS76       0.1154
    106  CE1      -16.9630   15.0350    5.0700 C.ar   76  HIS76       0.1986
    107  NE2      -17.5530   13.9590    4.5790 N.ar   76  HIS76      -0.2212
    108  N        -11.3260   11.5950    5.4810 N.am   77  GLN77      -0.1963
    109  CA       -10.4720   10.4170    5.4700 C.3    77  GLN77       0.1733
    110  C         -9.0160   10.6930    5.7800 C.2    77  GLN77       0.2616
    111  O         -8.5650   11.8350    5.7570 O.2    77  GLN77      -0.2715
    112  CB       -10.5890    9.6860    4.1330 C.3    77  GLN77       0.0408
    113  CG        -9.9270   10.3740    2.9630 C.3    77  GLN77       0.0908
    114  CD       -10.0460    9.5590    1.6880 C.2    77  GLN77       0.2608
    115  OE1      -11.0870    9.5620    1.0280 O.2    77  GLN77      -0.2717
    116  NE2       -8.9860    8.8410    1.3470 N.am   77  GLN77      -0.0878
    117  N         -8.2830    9.6300    6.0750 N.am   78  ASP78      -0.1971
    118  CA        -6.8710    9.7510    6.3990 C.3    78  ASP78       0.1709
    119  C         -6.0210    9.5000    5.1570 C.2    78  ASP78       0.2293
    120  O         -6.5210    9.0130    4.1400 O.2    78  ASP78      -0.2864
    121  CB        -6.5130    8.7590    7.5060 C.3    78  ASP78       0.1436
    122  CG        -6.7150    7.3240    7.0830 C.2    78  ASP78       0.3671
    123  OD1       -5.7080    6.6420    6.8030 O.co2  78  ASP78      -0.2456
    124  OD2       -7.8800    6.8820    7.0190 O.co2  78  ASP78      -0.2456
    125  N         -1.5630    7.4580    8.8900 N.3   123  GLN123     -0.1231
    126  CA        -2.8340    7.2800    9.5810 C.3   123  GLN123      0.1698
    127  C         -3.3670    8.5230   10.2840 C.2   123  GLN123      0.2592
    128  O         -4.5790    8.7340   10.3140 O.2   123  GLN123     -0.2718
    129  CB        -2.7250    6.1290   10.5910 C.3   123  GLN123      0.0381
    130  CG        -2.3200    4.7970    9.9520 C.3   123  GLN123      0.0905
    131  CD        -0.8560    4.4480   10.1760 C.2   123  GLN123      0.2608
    132  OE1       -0.5010    3.8300   11.1840 O.2   123  GLN123     -0.2717
    133  NE2        0.0000    4.8510    9.2460 N.am  123  GLN123     -0.0878
    134  N         -2.4990    9.3440   10.8680 N.am  124  ASN124     -0.1974
    135  CA        -3.0180   10.5420   11.5230 C.3   124  ASN124      0.1688
    136  C         -2.8450   11.8330   10.7300 C.2   124  ASN124      0.2292
    137  O         -2.6790   12.9140   11.2830 O.2   124  ASN124     -0.2864
    138  CB        -2.4910   10.6960   12.9650 C.3   124  ASN124      0.1181
    139  CG        -0.9920   10.5310   13.0860 C.2   124  ASN124      0.2629
    140  OD1       -0.2250   11.0830   12.3030 O.2   124  ASN124     -0.2716
    141  ND2       -0.5650    9.7870   14.1020 N.am  124  ASN124     -0.0877
    142  N         -5.0050   13.8260    8.0300 N.3   126  LEU126     -0.1245
    143  CA        -6.3610   13.8560    7.4880 C.3   126  LEU126      0.1561
    144  C         -6.4870   14.7950    6.2930 C.2   126  LEU126      0.2260
    145  O         -5.9320   15.8970    6.2900 O.2   126  LEU126     -0.2867
    146  CB        -7.3460   14.2640    8.5930 C.3   126  LEU126      0.0270
    147  CG        -7.2830   13.3730    9.8490 C.3   126  LEU126      0.0019
    148  CD1       -8.2450   13.8670   10.9160 C.3   126  LEU126      0.0001
    149  CD2       -7.6300   11.9440    9.4690 C.3   126  LEU126      0.0001
    150  N         -3.2350   15.2980   12.8400 N.3   136  ALA136     -0.1231
    151  CA        -4.1890   14.8970   13.8650 C.3   136  ALA136      0.1694
    152  C         -3.4700   14.2820   15.0520 C.2   136  ALA136      0.2592
    153  O         -2.3780   13.7310   14.9030 O.2   136  ALA136     -0.2718
    154  CB        -5.1820   13.9080   13.2890 C.3   136  ALA136      0.0304
    155  N         -4.0910   14.3760   16.2270 N.am  137  ASP137     -0.1974
    156  CA        -3.5160   13.8310   17.4520 C.3   137  ASP137      0.1709
    157  C         -2.2570   14.6080   17.8550 C.2   137  ASP137      0.2293
    158  O         -1.4450   14.1280   18.6420 O.2   137  ASP137     -0.2864
    159  CB        -3.1780   12.3520   17.2480 C.3   137  ASP137      0.1436
    160  CG        -2.5040   11.7260   18.4570 C.2   137  ASP137      0.3671
    161  OD1       -3.2190   11.2590   19.3770 O.co2 137  ASP137     -0.2456
    162  OD2       -1.2520   11.7040   18.4890 O.co2 137  ASP137     -0.2456
@<TRIPOS>BOND
     1   115   114    2
     2   116   114   am
     3   114   113    1
     4   113   112    1
     5   112   109    1
     6   120   119    2
     7   105   107   ar
     8   105   103   ar
     9   107   106   ar
    10   102   103    1
    11   102    99    1
    12   103   104   ar
    13   106   104   ar
    14   119   118    1
    15   109   108    1
    16   109   110    1
    17   108   100   am
    18   111   110    2
    19   110   117   am
    20   100    99    1
    21   100   101    2
    22    99    98    1
    23   117   118    1
    24   145   144    2
    25   144   143    1
    26   118   121    1
    27    98    93   am
    28   123   122   ar
    29   124   122   ar
    30   122   121    1
    31    96    95    1
    32   143   142    1
    33   143   146    1
    34    93    92    1
    35    93    94    2
    36    92    95    1
    37    92    91    1
    38    95    97    1
    39   146   147    1
    40   125   126    1
    41    89    87   ar
    42    89    90   ar
    43   133   131   am
    44    87    86   ar
    45   149   147    1
    46    84    83    2
    47   126   127    1
    48   126   129    1
    49    91    83   am
    50   147   148    1
    51    90    88   ar
    52   130   131    1
    53   130   129    1
    54   131   132    2
    55    83    82    1
    56   127   128    2
    57   127   134   am
    58    79    78   ar
    59    86    88   ar
    60    86    85    1
    61   136   137    2
    62   136   135    1
    63   134   135    1
    64    78    80   ar
    65    78    77    1
    66    85    82    1
    67   135   138    1
    68    82    81    1
    69     7     5    1
    70     4     3    2
    71     5     2    1
    72     5     6    1
    73    60    58    1
    74   140   139    2
    75    81    74   am
    76    77    76    1
    77     2     3    1
    78     2     1    1
    79     3     9   am
    80   150   151    1
    81     8     6    1
    82    54    55    1
    83   138   139    1
    84    76    73    1
    85   139   141   am
    86    55    58    1
    87    55    56    1
    88    74    75    2
    89    74    73    1
    90   154   151    1
    91    58    59    1
    92     9    10    1
    93   151   152    1
    94    73    72    1
    95    10    11    1
    96    56    57    2
    97   153   152    2
    98   152   155   am
    99    44    41    1
   100    72    63   am
   101    11    13   am
   102    11    12    2
   103    40    41    1
   104    13    14    1
   105    64    63    2
   106    41    42    1
   107    63    62    1
   108    21    19   ar
   109    38    37    1
   110   155   156    1
   111    36    35    2
   112    16    15    2
   113    65    62    1
   114    65    66    1
   115    37    39    1
   116    37    34    1
   117    14    17    1
   118    14    15    1
   119    18    19    1
   120    18    17    1
   121    19    20   ar
   122    15    22   am
   123    35    34    1
   124    62    61    1
   125   159   156    1
   126   159   160    1
   127    42    43    2
   128   156   157    1
   129    22    23    1
   130    67    66   ar
   131    67    69   ar
   132    66    68   ar
   133   157   158    2
   134    34    33    1
   135    23    24    1
   136   160   162   ar
   137   160   161   ar
   138    69    71   ar
   139    68    70   ar
   140    24    25    2
   141    24    26   am
   142    31    30    1
   143    26    27    1
   144    71    70   ar
   145    53    52    1
   146    27    30    1
   147    27    28    1
   148    30    32    1
   149    51    52    1
   150    51    50    1
   151    45    46    1
   152    49    46    1
   153    49    50    1
   154    46    47    1
   155    28    29    2
   156    47    48    2
