@<TRIPOS>MOLECULE
tmp/2dsaC01.pdb
 106 104 0 0 0
SMALL
GASTEIGER

@<TRIPOS>ATOM
      1  N         41.7300   47.1860   32.5130 N.3     6  SER6       -0.1203
      2  CA        42.2400   47.9770   33.6370 C.3     6  SER6        0.2005
      3  C         41.5600   47.4770   34.9020 C.2     6  SER6        0.2461
      4  O         40.3470   47.2300   34.8880 O.2     6  SER6       -0.2732
      5  CB        42.0200   49.4770   33.4340 C.3     6  SER6        0.2103
      6  OG        42.6450   50.2330   34.4750 O.3     6  SER6       -0.2182
      7  N         42.3470   47.2720   35.9880 N.am    7  PRO7       -0.2717
      8  CA        41.7970   46.7020   37.2270 C.3     7  PRO7        0.1536
      9  C         40.4790   47.3500   37.6720 C.2     7  PRO7        0.2599
     10  O         40.4070   48.5790   37.8410 O.2     7  PRO7       -0.2715
     11  CB        42.9090   46.9510   38.2570 C.3     7  PRO7        0.0310
     12  CG        44.1680   46.9580   37.4570 C.3     7  PRO7        0.0237
     13  CD        43.8030   47.5260   36.0930 C.3     7  PRO7        0.0939
     14  N         39.4460   46.5250   37.8230 N.am    8  GLY8       -0.1941
     15  CA        38.1500   46.9660   38.3360 C.3     8  GLY8        0.2014
     16  C         37.2530   47.7290   37.3750 C.2     8  GLY8        0.2639
     17  O         36.1010   48.0240   37.7150 O.2     8  GLY8       -0.2714
     18  N         37.7740   48.0450   36.1880 N.am    9  ALA9       -0.1963
     19  CA        37.0170   48.7230   35.1340 C.3     9  ALA9        0.1728
     20  C         36.0190   47.7690   34.5000 C.2     9  ALA9        0.2616
     21  O         35.9480   46.5990   34.8890 O.2     9  ALA9       -0.2715
     22  CB        37.9620   49.2840   34.0780 C.3     9  ALA9        0.0334
     23  N         35.2530   48.2550   33.5240 N.am   10  CYS10      -0.1968
     24  CA        34.2260   47.4190   32.8660 C.3    10  CYS10       0.1712
     25  C         34.7690   46.1470   32.2020 C.2    10  CYS10       0.2296
     26  O         34.0100   45.2050   31.9770 O.2    10  CYS10      -0.2864
     27  CB        33.4090   48.2240   31.8440 C.3    10  CYS10       0.0983
     28  SG        34.3630   48.9630   30.4960 S.3    10  CYS10      -0.0798
     29  N         45.1840   53.6290   31.7610 N.3    32  LEU32      -0.1245
     30  CA        44.1770   54.5020   31.1550 C.3    32  LEU32       0.1561
     31  C         44.5580   55.9960   31.1790 C.2    32  LEU32       0.2260
     32  O         43.9560   56.8100   30.4620 O.2    32  LEU32      -0.2867
     33  CB        42.7830   54.2540   31.7640 C.3    32  LEU32       0.0270
     34  CG        42.1950   52.8320   31.7140 C.3    32  LEU32       0.0019
     35  CD1       40.8400   52.7750   32.3960 C.3    32  LEU32       0.0001
     36  CD2       42.0780   52.3090   30.2780 C.3    32  LEU32       0.0001
     37  N         25.9500   51.8420   33.0190 N.3   106  HIS106     -0.1226
     38  CA        27.3880   52.0710   32.8800 C.3   106  HIS106      0.1752
     39  C         27.6930   53.5360   32.5520 C.2   106  HIS106      0.2595
     40  O         28.4980   54.1610   33.2220 O.2   106  HIS106     -0.2718
     41  CB        27.9360   51.1130   31.8030 C.3   106  HIS106      0.0759
     42  CG        29.3950   51.2760   31.4820 C.ar  106  HIS106      0.0818
     43  ND1       30.1290   50.2720   30.8750 N.ar  106  HIS106     -0.2268
     44  CD2       30.2460   52.3210   31.6360 C.ar  106  HIS106      0.1154
     45  CE1       31.3680   50.6900   30.6880 C.ar  106  HIS106      0.1986
     46  NE2       31.4680   51.9270   31.1440 N.ar  106  HIS106     -0.2212
     47  N         27.0450   54.0720   31.5240 N.am  107  LYS107     -0.1980
     48  CA        27.3380   55.4210   31.0530 C.3   107  LYS107      0.1596
     49  C         26.9250   56.5320   32.0160 C.2   107  LYS107      0.2287
     50  O         27.3910   57.6700   31.8730 O.2   107  LYS107     -0.2864
     51  CB        26.7030   55.6590   29.6840 C.3   107  LYS107      0.0298
     52  CG        27.4960   55.0200   28.5560 C.3   107  LYS107      0.0038
     53  CD        28.7980   55.7530   28.3320 C.3   107  LYS107      0.0206
     54  CE        29.8700   54.8060   27.8290 C.3   107  LYS107      0.1093
     55  NZ        31.0170   55.5890   27.2910 N.3   107  LYS107     -0.1314
     56  N         29.7810   56.8300   34.5900 N.3   110  SER110     -0.1217
     57  CA        30.9850   57.4570   33.9980 C.3   110  SER110      0.1889
     58  C         31.3450   58.8600   34.5040 C.2   110  SER110      0.2288
     59  O         32.5060   59.0950   34.8350 O.2   110  SER110     -0.2866
     60  CB        30.9200   57.4640   32.4630 C.3   110  SER110      0.2089
     61  OG        30.9730   56.1430   31.9510 O.3   110  SER110     -0.2183
     62  N         32.9430   59.1320   38.0640 N.3   113  PHE113     -0.1241
     63  CA        34.3580   58.7900   38.2070 C.3   113  PHE113      0.1605
     64  C         35.2360   59.8930   37.6360 C.2   113  PHE113      0.2264
     65  O         36.4550   59.7500   37.5490 O.2   113  PHE113     -0.2867
     66  CB        34.6720   57.4550   37.5260 C.3   113  PHE113      0.0534
     67  CG        34.1420   56.2610   38.2610 C.ar  113  PHE113     -0.0203
     68  CD1       32.9030   55.7240   37.9420 C.ar  113  PHE113     -0.0042
     69  CD2       34.8890   55.6640   39.2690 C.ar  113  PHE113     -0.0042
     70  CE1       32.4120   54.6170   38.6230 C.ar  113  PHE113     -0.0003
     71  CE2       34.4060   54.5590   39.9560 C.ar  113  PHE113     -0.0003
     72  CZ        33.1690   54.0340   39.6330 C.ar  113  PHE113     -0.0000
     73  N         30.7180   49.0960   41.2470 N.3   164  TRP164     -0.1241
     74  CA        31.2960   50.4290   41.2360 C.3   164  TRP164      0.1605
     75  C         30.6960   51.3590   42.2800 C.2   164  TRP164      0.2264
     76  O         31.2420   52.4290   42.5410 O.2   164  TRP164     -0.2867
     77  CB        31.1130   51.0710   39.8670 C.3   164  TRP164      0.0550
     78  CG        31.9040   50.4390   38.7850 C.ar  164  TRP164      0.0003
     79  CD1       32.9870   49.6180   38.9250 C.ar  164  TRP164      0.0946
     80  CD2       31.6990   50.6070   37.3850 C.ar  164  TRP164      0.0152
     81  NE1       33.4640   49.2520   37.6920 N.ar  164  TRP164     -0.2442
     82  CE2       32.6950   49.8480   36.7250 C.ar  164  TRP164      0.0810
     83  CE3       30.7750   51.3390   36.6170 C.ar  164  TRP164      0.0012
     84  CZ2       32.7870   49.7800   35.3300 C.ar  164  TRP164      0.0191
     85  CZ3       30.8630   51.2760   35.2340 C.ar  164  TRP164      0.0001
     86  CH2       31.8730   50.4980   34.5990 C.ar  164  TRP164      0.0015
     87  N         32.5990   52.7700   45.3910 N.3   167  TYR167     -0.1241
     88  CA        33.6590   53.7270   45.0960 C.3   167  TYR167      0.1605
     89  C         33.1450   55.1290   44.7990 C.2   167  TYR167      0.2264
     90  O         33.8770   56.1100   44.9500 O.2   167  TYR167     -0.2867
     91  CB        34.5340   53.1970   43.9650 C.3   167  TYR167      0.0534
     92  CG        35.1810   51.8830   44.3340 C.ar  167  TYR167     -0.0201
     93  CD1       34.5890   50.6670   43.9860 C.ar  167  TYR167     -0.0009
     94  CD2       36.3670   51.8540   45.0680 C.ar  167  TYR167     -0.0009
     95  CE1       35.1760   49.4530   44.3390 C.ar  167  TYR167      0.0417
     96  CE2       36.9670   50.6480   45.4260 C.ar  167  TYR167      0.0417
     97  CZ        36.3690   49.4480   45.0590 C.ar  167  TYR167      0.1957
     98  OH        36.9680   48.2500   45.4140 O.3   167  TYR167     -0.2866
     99  N         42.5650   42.8120   43.1880 N.3   200  LEU200     -0.1245
    100  CA        41.5320   43.5090   43.9400 C.3   200  LEU200      0.1561
    101  C         41.1820   42.6740   45.1590 C.2   200  LEU200      0.2260
    102  O         40.4650   43.1420   46.0440 O.2   200  LEU200     -0.2867
    103  CB        40.2730   43.7390   43.0750 C.3   200  LEU200      0.0270
    104  CG        40.3500   44.3480   41.6600 C.3   200  LEU200      0.0019
    105  CD1       39.0860   44.0300   40.8860 C.3   200  LEU200      0.0001
    106  CD2       40.5890   45.8590   41.6740 C.3   200  LEU200      0.0001
@<TRIPOS>BOND
     1    55    54    1
     2    54    53    1
     3    53    52    1
     4    52    51    1
     5    51    48    1
     6    36    34    1
     7    32    31    2
     8    28    27    1
     9    45    43   ar
    10    45    46   ar
    11    43    42   ar
    12    48    47    1
    13    48    49    1
    14    46    44   ar
    15    30    31    1
    16    30    29    1
    17    30    33    1
    18    42    44   ar
    19    42    41    1
    20    47    39   am
    21    34    33    1
    22    34    35    1
    23    41    38    1
    24    27    24    1
    25    50    49    2
    26    61    60    1
    27    26    25    2
    28    25    24    1
    29    60    57    1
    30     1     2    1
    31    39    38    1
    32    39    40    2
    33    24    23    1
    34    38    37    1
    35     5     2    1
    36     5     6    1
    37    23    20   am
    38     2     3    1
    39    57    58    1
    40    57    56    1
    41    22    19    1
    42    20    21    2
    43    20    19    1
    44    58    59    2
    45    86    85   ar
    46    86    84   ar
    47     4     3    2
    48     3     7   am
    49    19    18    1
    50    85    83   ar
    51    84    82   ar
    52     7    13    1
    53     7     8    1
    54    13    12    1
    55    18    16   am
    56    83    80   ar
    57    82    80   ar
    58    82    81   ar
    59     8     9    1
    60     8    11    1
    61    16    17    2
    62    16    15    1
    63    80    78   ar
    64    12    11    1
    65    66    63    1
    66    66    67    1
    67    65    64    2
    68    64    63    1
    69     9    14   am
    70     9    10    2
    71    81    79   ar
    72    14    15    1
    73    68    67   ar
    74    68    70   ar
    75    62    63    1
    76    67    69   ar
    77    70    72   ar
    78    78    79   ar
    79    78    77    1
    80    69    71   ar
    81    72    71   ar
    82    77    74    1
    83   105   104    1
    84    74    73    1
    85    74    75    1
    86   104   106    1
    87   104   103    1
    88    75    76    2
    89   103   100    1
    90    99   100    1
    91   100   101    1
    92    91    92    1
    93    91    88    1
    94    93    92   ar
    95    93    95   ar
    96    92    94   ar
    97    95    97   ar
    98    89    90    2
    99    89    88    1
   100    97    98    1
   101    97    96   ar
   102    94    96   ar
   103    88    87    1
   104   101   102    2
