@<TRIPOS>MOLECULE
tmp/2dscB01.pdb
 168 156 0 0 0
SMALL
GASTEIGER

@<TRIPOS>ATOM
      1  N        -17.1640   20.9590   83.4040 N.3    15  TRP15      -0.1227
      2  CA       -17.4500   20.1340   82.2380 C.3    15  TRP15       0.1737
      3  C        -16.2290   19.5020   81.6000 C.2    15  TRP15       0.2595
      4  O        -16.3210   18.4240   81.0110 O.2    15  TRP15      -0.2718
      5  CB       -18.1710   20.9570   81.1690 C.3    15  TRP15       0.0564
      6  CG       -19.4000   21.6380   81.6590 C.ar   15  TRP15       0.0003
      7  CD1      -19.4970   22.9120   82.1460 C.ar   15  TRP15       0.0946
      8  CD2      -20.7150   21.0820   81.7220 C.ar   15  TRP15       0.0152
      9  NE1      -20.7950   23.1830   82.5050 N.ar   15  TRP15      -0.2442
     10  CE2      -21.5640   22.0770   82.2560 C.ar   15  TRP15       0.0810
     11  CE3      -21.2600   19.8370   81.3800 C.ar   15  TRP15       0.0012
     12  CZ2      -22.9330   21.8660   82.4550 C.ar   15  TRP15       0.0191
     13  CZ3      -22.6190   19.6260   81.5770 C.ar   15  TRP15       0.0001
     14  CH2      -23.4410   20.6380   82.1110 C.ar   15  TRP15       0.0015
     15  N        -15.0880   20.1700   81.7200 N.am   16  VAL16      -0.1980
     16  CA       -13.8660   19.6900   81.1020 C.3    16  VAL16       0.1595
     17  C        -12.6780   19.6870   82.0450 C.2    16  VAL16       0.2287
     18  O        -12.5940   20.5040   82.9560 O.2    16  VAL16      -0.2864
     19  CB       -13.5080   20.5780   79.8840 C.3    16  VAL16       0.0276
     20  CG1      -12.3460   19.9750   79.1100 C.3    16  VAL16       0.0022
     21  CG2      -14.7340   20.7500   78.9890 C.3    16  VAL16       0.0022
     22  N        -13.8780   15.0580   79.0410 N.3    38  ARG38      -0.1245
     23  CA       -15.1150   15.6550   79.5200 C.3    38  ARG38       0.1563
     24  C        -15.3490   15.0180   80.8900 C.2    38  ARG38       0.2260
     25  O        -15.1290   13.8180   81.0660 O.2    38  ARG38      -0.2867
     26  CB       -16.2810   15.3350   78.5720 C.3    38  ARG38       0.0307
     27  CG       -16.3200   16.2050   77.3160 C.3    38  ARG38       0.0489
     28  CD       -17.5280   15.8840   76.4400 C.3    38  ARG38       0.2205
     29  NE       -17.7370   16.8720   75.3780 N.pl3  38  ARG38      -0.0865
     30  CZ       -18.1910   18.1090   75.5730 C.cat  38  ARG38       0.5346
     31  NH1      -18.4910   18.5300   76.7940 N.pl3  38  ARG38       0.1354
     32  NH2      -18.3550   18.9280   74.5410 N.pl3  38  ARG38       0.1354
     33  N        -19.2810    9.3740   74.3960 N.3    47  ASP47      -0.1225
     34  CA       -19.7290   10.6510   74.9530 C.3    47  ASP47       0.1805
     35  C        -21.0750   11.0740   74.3630 C.2    47  ASP47       0.2598
     36  O        -21.8900   11.7000   75.0460 O.2    47  ASP47      -0.2718
     37  CB       -18.7070   11.7640   74.6860 C.3    47  ASP47       0.1424
     38  CG       -17.3840   11.5280   75.3840 C.2    47  ASP47       0.3668
     39  OD1      -16.6630   10.5930   74.9830 O.co2  47  ASP47      -0.2456
     40  OD2      -17.0650   12.2770   76.3340 O.co2  47  ASP47      -0.2456
     41  N        -21.2950   10.7370   73.0920 N.am   48  GLY48      -0.1942
     42  CA       -22.5380   11.1010   72.4350 C.3    48  GLY48       0.2014
     43  C        -22.7230   10.4980   71.0540 C.2    48  GLY48       0.2638
     44  O        -22.0580    9.5270   70.6850 O.2    48  GLY48      -0.2714
     45  N        -23.6500   11.0720   70.2930 N.am   49  VAL49      -0.1977
     46  CA       -23.9360   10.6080   68.9430 C.3    49  VAL49       0.1596
     47  C        -24.0660   11.7810   67.9860 C.2    49  VAL49       0.2287
     48  O        -24.3680   12.8990   68.4030 O.2    49  VAL49      -0.2864
     49  CB       -25.2860    9.8280   68.8530 C.3    49  VAL49       0.0276
     50  CG1      -25.2690    8.6030   69.7590 C.3    49  VAL49       0.0022
     51  CG2      -26.4420   10.7510   69.2120 C.3    49  VAL49       0.0022
     52  N        -25.3540   26.6450   64.6020 N.3    69  GLN69      -0.1245
     53  CA       -25.4660   27.2420   65.9200 C.3    69  GLN69       0.1566
     54  C        -24.1570   27.8920   66.3340 C.2    69  GLN69       0.2260
     55  O        -23.0940   27.5660   65.8080 O.2    69  GLN69      -0.2867
     56  CB       -25.8530   26.1660   66.9370 C.3    69  GLN69       0.0367
     57  CG       -24.7370   25.1870   67.2540 C.3    69  GLN69       0.0905
     58  CD       -25.2510   23.9040   67.8900 C.2    69  GLN69       0.2608
     59  OE1      -25.5400   22.9240   67.1970 O.2    69  GLN69      -0.2717
     60  NE2      -25.3780   23.9100   69.2120 N.am   69  GLN69      -0.0878
     61  N        -21.0500   28.4240   68.5650 N.3    71  ARG71      -0.1245
     62  CA       -20.2200   27.5440   69.3870 C.3    71  ARG71       0.1563
     63  C        -19.1790   28.3830   70.1140 C.2    71  ARG71       0.2260
     64  O        -18.1820   28.7880   69.5190 O.2    71  ARG71      -0.2867
     65  CB       -19.5100   26.5050   68.5100 C.3    71  ARG71       0.0307
     66  CG       -20.4270   25.4380   67.9280 C.3    71  ARG71       0.0489
     67  CD       -21.1010   24.6580   69.0500 C.3    71  ARG71       0.2205
     68  NE       -21.6280   23.3720   68.6060 N.pl3  71  ARG71      -0.0865
     69  CZ       -22.2470   22.5020   69.4010 C.cat  71  ARG71       0.5346
     70  NH1      -22.4230   22.7790   70.6910 N.pl3  71  ARG71       0.1354
     71  NH2      -22.6770   21.3480   68.9100 N.pl3  71  ARG71       0.1354
     72  N        -16.5490   27.9120   71.9590 N.3    73  PRO73      -0.2116
     73  CA       -15.1230   27.6430   71.7350 C.3    73  PRO73       0.1372
     74  C        -14.6250   28.1860   70.3930 C.2    73  PRO73       0.2244
     75  O        -13.4690   28.5970   70.2640 O.2    73  PRO73      -0.2868
     76  CB       -15.0410   26.1200   71.7970 C.3    73  PRO73       0.0268
     77  CG       -16.2060   25.7310   72.6590 C.3    73  PRO73       0.0207
     78  CD       -17.2910   26.6560   72.1720 C.3    73  PRO73       0.0892
     79  N        -23.1520   21.7430   61.4480 N.3    80  GLU80      -0.1245
     80  CA       -22.8800   20.3810   61.9170 C.3    80  GLU80       0.1567
     81  C        -24.0160   19.3930   61.6910 C.2    80  GLU80       0.2260
     82  O        -25.1400   19.7750   61.3840 O.2    80  GLU80      -0.2867
     83  CB       -22.6220   20.4030   63.4380 C.3    80  GLU80       0.0388
     84  CG       -21.5670   21.3770   63.9410 C.3    80  GLU80       0.1160
     85  CD       -21.7200   21.6820   65.4320 C.2    80  GLU80       0.3649
     86  OE1      -21.8780   20.7350   66.2360 O.co2  80  GLU80      -0.2457
     87  OE2      -21.6890   22.8750   65.8010 O.co2  80  GLU80      -0.2457
     88  N        -26.4280   16.5480   66.7900 N.3    83  ALA83      -0.1231
     89  CA       -25.6870   15.7300   67.7460 C.3    83  ALA83       0.1694
     90  C        -26.0240   16.0150   69.1980 C.2    83  ALA83       0.2593
     91  O        -26.5740   17.0640   69.5230 O.2    83  ALA83      -0.2718
     92  CB       -24.2040   15.9310   67.5390 C.3    83  ALA83       0.0304
     93  N        -25.6650   15.0750   70.0700 N.am   84  GLY84      -0.1942
     94  CA       -25.9170   15.2390   71.4910 C.3    84  GLY84       0.2014
     95  C        -25.3830   14.0870   72.3290 C.2    84  GLY84       0.2638
     96  O        -25.1520   12.9890   71.8190 O.2    84  GLY84      -0.2714
     97  N        -25.1910   14.3420   73.6230 N.am   85  LEU85      -0.1977
     98  CA       -24.6890   13.3380   74.5600 C.3    85  LEU85       0.1596
     99  C        -25.7640   12.2720   74.7980 C.2    85  LEU85       0.2287
    100  O        -26.9540   12.5590   74.6970 O.2    85  LEU85      -0.2864
    101  CB       -24.3080   14.0190   75.8780 C.3    85  LEU85       0.0297
    102  CG       -23.4460   15.2830   75.7200 C.3    85  LEU85       0.0022
    103  CD1      -23.2360   15.9390   77.0720 C.3    85  LEU85       0.0001
    104  CD2      -22.1090   14.9350   75.0820 C.3    85  LEU85       0.0001
    105  N        -32.3620   12.7170   69.6440 N.3    99  GLU99      -0.1245
    106  CA       -31.6910   13.9830   69.3850 C.3    99  GLU99       0.1567
    107  C        -32.2140   14.5980   68.0870 C.2    99  GLU99       0.2260
    108  O        -32.4370   15.8070   68.0130 O.2    99  GLU99      -0.2867
    109  CB       -30.1780   13.7810   69.2850 C.3    99  GLU99       0.0388
    110  CG       -29.4050   15.0820   69.1750 C.3    99  GLU99       0.1160
    111  CD       -29.5490   15.9550   70.4130 C.2    99  GLU99       0.3649
    112  OE1      -29.1880   17.1510   70.3480 O.co2  99  GLU99      -0.2457
    113  OE2      -30.0150   15.4420   71.4530 O.co2  99  GLU99      -0.2457
    114  N        -34.0240   18.2770   67.9990 N.3   103  GLU103     -0.1245
    115  CA       -33.4240   19.4220   67.3220 C.3   103  GLU103      0.1567
    116  C        -34.0790   19.7870   65.9850 C.2   103  GLU103      0.2260
    117  O        -34.0620   20.9510   65.5840 O.2   103  GLU103     -0.2867
    118  CB       -31.9120   19.1950   67.1230 C.3   103  GLU103      0.0388
    119  CG       -31.1100   19.2250   68.4330 C.3   103  GLU103      0.1160
    120  CD       -29.5890   19.2080   68.2450 C.2   103  GLU103      0.3649
    121  OE1      -28.8760   19.4760   69.2350 O.co2 103  GLU103     -0.2457
    122  OE2      -29.1010   18.9260   67.1320 O.co2 103  GLU103     -0.2457
    123  N        -13.2550   11.8320   68.2300 N.3   119  MET119     -0.1245
    124  CA       -13.4480   13.1920   67.7470 C.3   119  MET119      0.1570
    125  C        -12.1790   13.9430   67.3770 C.2   119  MET119      0.2261
    126  O        -12.1200   14.5920   66.3370 O.2   119  MET119     -0.2867
    127  CB       -14.2330   13.9890   68.7870 C.3   119  MET119      0.0387
    128  CG       -15.6780   13.5520   68.9020 C.3   119  MET119      0.0595
    129  SD       -16.4980   13.7300   67.2970 S.3   119  MET119     -0.1393
    130  CE       -16.8200   15.4810   67.2980 C.3   119  MET119      0.0692
    131  N        -12.6460   12.0270   73.6330 N.3   126  CYS126     -0.1235
    132  CA       -14.0380   12.1190   73.2010 C.3   126  CYS126      0.1677
    133  C        -14.3520   11.1770   72.0440 C.2   126  CYS126      0.2270
    134  O        -13.5770   11.0730   71.0950 O.2   126  CYS126     -0.2867
    135  CB       -14.3700   13.5580   72.7950 C.3   126  CYS126      0.0956
    136  SG       -14.2240   14.7420   74.1510 S.3   126  CYS126     -0.0801
    137  N        -17.8920    9.2750   69.7300 N.3   128  ILE128     -0.1245
    138  CA       -19.3060    9.3400   69.4190 C.3   128  ILE128      0.1561
    139  C        -19.6520    8.1940   68.4940 C.2   128  ILE128      0.2260
    140  O        -18.7730    7.5380   67.9280 O.2   128  ILE128     -0.2867
    141  CB       -19.6860   10.6550   68.6770 C.3   128  ILE128      0.0252
    142  CG1      -19.0110   10.6900   67.2960 C.3   128  ILE128      0.0019
    143  CG2      -19.2760   11.8690   69.5100 C.3   128  ILE128      0.0019
    144  CD1      -19.4400   11.8410   66.4090 C.3   128  ILE128      0.0001
    145  N        -31.3220   27.8190   76.6440 N.3   152  GLY152     -0.1210
    146  CA       -29.9410   28.0670   76.2730 C.3   152  GLY152      0.1956
    147  C        -29.5540   27.3640   74.9850 C.2   152  GLY152      0.2611
    148  O        -28.3800   27.3370   74.6120 O.2   152  GLY152     -0.2717
    149  N        -30.5410   26.7900   74.3030 N.am  153  GLU153     -0.1979
    150  CA       -30.2810   26.0910   73.0520 C.3   153  GLU153      0.1602
    151  C        -30.9500   26.8230   71.8910 C.2   153  GLU153      0.2287
    152  O        -32.1780   26.8590   71.7870 O.2   153  GLU153     -0.2864
    153  CB       -30.7910   24.6480   73.1380 C.3   153  GLU153      0.0415
    154  CG       -29.8830   23.6380   72.4490 C.3   153  GLU153      0.1163
    155  CD       -30.2840   22.1990   72.7230 C.2   153  GLU153      0.3649
    156  OE1      -29.4820   21.2890   72.4150 O.co2 153  GLU153     -0.2457
    157  OE2      -31.4000   21.9790   73.2400 O.co2 153  GLU153     -0.2457
    158  N        -16.5070   16.4950   60.0000 N.3   183  ARG183     -0.1245
    159  CA       -17.2190   15.2570   59.6980 C.3   183  ARG183      0.1563
    160  C        -18.2150   15.5390   58.5710 C.2   183  ARG183      0.2260
    161  O        -18.3770   14.7240   57.6600 O.2   183  ARG183     -0.2867
    162  CB       -17.9480   14.7460   60.9420 C.3   183  ARG183      0.0307
    163  CG       -16.9820   14.2640   62.0290 C.3   183  ARG183      0.0489
    164  CD       -17.6140   14.3390   63.4060 C.3   183  ARG183      0.2205
    165  NE       -17.8070   15.7250   63.8150 N.pl3 183  ARG183     -0.0865
    166  CZ       -18.6460   16.1150   64.7680 C.cat 183  ARG183      0.5346
    167  NH1      -19.3820   15.2180   65.4190 N.pl3 183  ARG183      0.1354
    168  NH2      -18.7490   17.4030   65.0690 N.pl3 183  ARG183      0.1354
@<TRIPOS>BOND
     1   161   160    2
     2   160   159    1
     3   159   158    1
     4   159   162    1
     5   162   163    1
     6    82    81    2
     7    79    80    1
     8    81    80    1
     9    80    83    1
    10   163   164    1
    11   164   165    1
    12    83    84    1
    13   165   166    2
    14    84    85    1
    15    52    53    1
    16   166   168    1
    17   166   167    1
    18    85    87   ar
    19    85    86   ar
    20   117   116    2
    21    55    54    2
    22    53    54    1
    23    53    56    1
    24   116   115    1
    25   126   125    2
    26   144   142    1
    27    88    89    1
    28    56    57    1
    29   118   115    1
    30   118   119    1
    31   122   120   ar
    32    59    58    2
    33    57    58    1
    34   142   141    1
    35   129   130    1
    36   129   128    1
    37   115   114    1
    38   125   124    1
    39    92    89    1
    40    89    90    1
    41   124   123    1
    42   124   127    1
    43    58    60   am
    44    66    65    1
    45    66    67    1
    46   140   139    2
    47    47    48    2
    48    47    46    1
    49   108   107    2
    50   107   106    1
    51   120   119    1
    52   120   121   ar
    53   139   138    1
    54    65    62    1
    55    61    62    1
    56    68    67    1
    57    68    69    2
    58   141   138    1
    59   141   143    1
    60   127   128    1
    61    49    46    1
    62    49    51    1
    63    49    50    1
    64    71    69    1
    65    46    45    1
    66   110   109    1
    67   110   111    1
    68    90    91    2
    69    90    93   am
    70   109   106    1
    71   106   105    1
    72    62    63    1
    73    69    70    1
    74   138   137    1
    75    64    63    2
    76    93    94    1
    77    75    74    2
    78    45    43   am
    79   112   111   ar
    80    74    73    1
    81   111   113   ar
    82    44    43    2
    83    43    42    1
    84   134   133    2
    85    94    95    1
    86    73    76    1
    87    73    72    1
    88   152   151    2
    89    76    77    1
    90    96    95    2
    91   151   150    1
    92    72    78    1
    93   133   132    1
    94    78    77    1
    95    95    97   am
    96   156   155   ar
    97    42    41    1
    98   154   155    1
    99   154   153    1
   100   155   157   ar
   101   135   132    1
   102   135   136    1
   103   150   153    1
   104   150   149    1
   105    41    35   am
   106   132   131    1
   107    97    98    1
   108   149   147   am
   109    35    34    1
   110    35    36    2
   111    33    34    1
   112    32    30    1
   113    98    99    1
   114    98   101    1
   115   148   147    2
   116    37    34    1
   117    37    38    1
   118   100    99    2
   119    39    38   ar
   120   147   146    1
   121   104   102    1
   122    29    30    2
   123    29    28    1
   124    38    40   ar
   125    30    31    1
   126   102   101    1
   127   102   103    1
   128   146   145    1
   129    28    27    1
   130    27    26    1
   131    26    23    1
   132    21    19    1
   133    22    23    1
   134    20    19    1
   135    23    24    1
   136    19    16    1
   137    24    25    2
   138     4     3    2
   139    16    15    1
   140    16    17    1
   141     5     6    1
   142     5     2    1
   143    11    13   ar
   144    11     8   ar
   145    13    14   ar
   146     3    15   am
   147     3     2    1
   148     6     8   ar
   149     6     7   ar
   150     8    10   ar
   151    17    18    2
   152    14    12   ar
   153     7     9   ar
   154     2     1    1
   155    10    12   ar
   156    10     9   ar
