@<TRIPOS>MOLECULE
tmp/2dsdB01.pdb
 106 101 0 0 0
SMALL
GASTEIGER

@<TRIPOS>ATOM
      1  N        -18.7400   18.5190   83.3710 N.3    15  TRP15      -0.1227
      2  CA       -18.8720   17.7500   82.1380 C.3    15  TRP15       0.1737
      3  C        -17.5530   17.2910   81.5330 C.2    15  TRP15       0.2595
      4  O        -17.4910   16.2220   80.9270 O.2    15  TRP15      -0.2718
      5  CB       -19.6400   18.5550   81.0800 C.3    15  TRP15       0.0564
      6  CG       -20.9500   19.0730   81.5550 C.ar   15  TRP15       0.0003
      7  CD1      -21.1740   20.2400   82.2250 C.ar   15  TRP15       0.0946
      8  CD2      -22.2240   18.4390   81.4090 C.ar   15  TRP15       0.0152
      9  NE1      -22.5120   20.3750   82.5060 N.ar   15  TRP15      -0.2442
     10  CE2      -23.1800   19.2820   82.0160 C.ar   15  TRP15       0.0810
     11  CE3      -22.6510   17.2380   80.8260 C.ar   15  TRP15       0.0012
     12  CZ2      -24.5430   18.9630   82.0550 C.ar   15  TRP15       0.0191
     13  CZ3      -24.0040   16.9190   80.8640 C.ar   15  TRP15       0.0001
     14  CH2      -24.9340   17.7800   81.4750 C.ar   15  TRP15       0.0015
     15  N        -16.5000   18.0850   81.7180 N.am   16  VAL16      -0.1980
     16  CA       -15.1900   17.7770   81.1360 C.3    16  VAL16       0.1595
     17  C        -14.0730   17.5430   82.1540 C.2    16  VAL16       0.2287
     18  O        -14.0320   18.1940   83.1890 O.2    16  VAL16      -0.2864
     19  CB       -14.7660   18.9040   80.1740 C.3    16  VAL16       0.0276
     20  CG1      -13.4860   18.5270   79.4380 C.3    16  VAL16       0.0022
     21  CG2      -15.8960   19.1930   79.2070 C.3    16  VAL16       0.0022
     22  N        -14.7580   12.8410   79.3580 N.3    38  ARG38      -0.1245
     23  CA       -16.0500   13.3470   79.7960 C.3    38  ARG38       0.1563
     24  C        -16.3820   12.7190   81.1370 C.2    38  ARG38       0.2260
     25  O        -16.4820   11.4940   81.2490 O.2    38  ARG38      -0.2867
     26  CB       -17.1430   13.0260   78.7690 C.3    38  ARG38       0.0307
     27  CG       -17.1660   13.9920   77.5850 C.3    38  ARG38       0.0489
     28  CD       -18.3700   13.7810   76.6620 C.3    38  ARG38       0.2205
     29  NE       -18.4540   14.8180   75.6320 N.pl3  38  ARG38      -0.0865
     30  CZ       -19.0170   16.0150   75.7990 C.cat  38  ARG38       0.5346
     31  NH1      -19.5660   16.3490   76.9630 N.pl3  38  ARG38       0.1354
     32  NH2      -19.0220   16.8900   74.8010 N.pl3  38  ARG38       0.1354
     33  N        -21.7240   26.6970   68.7480 N.3    71  ARG71      -0.1245
     34  CA       -20.8560   25.8380   69.5420 C.3    71  ARG71       0.1563
     35  C        -19.8150   26.6240   70.3370 C.2    71  ARG71       0.2260
     36  O        -18.7930   27.0630   69.7990 O.2    71  ARG71      -0.2867
     37  CB       -20.1550   24.8230   68.6320 C.3    71  ARG71       0.0307
     38  CG       -21.0700   23.7360   68.1130 C.3    71  ARG71       0.0489
     39  CD       -21.6660   22.9600   69.2670 C.3    71  ARG71       0.2205
     40  NE       -22.2590   21.6960   68.8570 N.pl3  71  ARG71      -0.0865
     41  CZ       -22.9240   20.8810   69.6730 C.cat  71  ARG71       0.5346
     42  NH1      -23.0890   21.1900   70.9620 N.pl3  71  ARG71       0.1354
     43  NH2      -23.4300   19.7490   69.1960 N.pl3  71  ARG71       0.1354
     44  N        -17.3100   25.9700   72.2490 N.3    73  PRO73      -0.2116
     45  CA       -15.8920   25.6620   72.0730 C.3    73  PRO73       0.1372
     46  C        -15.3280   26.2450   70.7890 C.2    73  PRO73       0.2244
     47  O        -14.1180   26.4550   70.6710 O.2    73  PRO73      -0.2868
     48  CB       -15.8790   24.1400   72.0410 C.3    73  PRO73       0.0268
     49  CG       -17.0350   23.7810   72.9040 C.3    73  PRO73       0.0207
     50  CD       -18.0850   24.7320   72.4220 C.3    73  PRO73       0.0892
     51  N        -26.9480   14.8750   66.7820 N.3    83  ALA83      -0.1231
     52  CA       -26.2150   14.0350   67.7150 C.3    83  ALA83       0.1694
     53  C        -26.5240   14.2940   69.1660 C.2    83  ALA83       0.2593
     54  O        -26.9050   15.3970   69.5550 O.2    83  ALA83      -0.2718
     55  CB       -24.7290   14.1820   67.4920 C.3    83  ALA83       0.0304
     56  N        -26.3390   13.2590   69.9750 N.am   84  GLY84      -0.1942
     57  CA       -26.5910   13.3910   71.3930 C.3    84  GLY84       0.2014
     58  C        -26.0170   12.2410   72.1810 C.2    84  GLY84       0.2638
     59  O        -25.6480   11.2170   71.6200 O.2    84  GLY84      -0.2714
     60  N        -25.9490   12.4220   73.4960 N.am   85  LEU85      -0.1977
     61  CA       -25.4220   11.4130   74.4140 C.3    85  LEU85       0.1596
     62  C        -26.4730   10.3250   74.6420 C.2    85  LEU85       0.2287
     63  O        -27.6690   10.6110   74.6830 O.2    85  LEU85      -0.2864
     64  CB       -25.0570   12.0750   75.7450 C.3    85  LEU85       0.0297
     65  CG       -24.1940   13.3350   75.6570 C.3    85  LEU85       0.0022
     66  CD1      -24.2640   14.0610   76.9830 C.3    85  LEU85       0.0001
     67  CD2      -22.7460   13.0030   75.2840 C.3    85  LEU85       0.0001
     68  N        -32.8140   11.3330   69.6010 N.3    99  GLU99      -0.1245
     69  CA       -32.0550   12.5370   69.3730 C.3    99  GLU99       0.1567
     70  C        -32.4320   13.1830   68.0480 C.2    99  GLU99       0.2260
     71  O        -32.2550   14.3870   67.8760 O.2    99  GLU99      -0.2867
     72  CB       -30.5610   12.2190   69.4280 C.3    99  GLU99       0.0388
     73  CG       -29.6780   13.3470   69.9720 C.3    99  GLU99       0.1160
     74  CD       -30.0590   13.8220   71.3750 C.2    99  GLU99       0.3649
     75  OE1      -30.9530   14.6840   71.4880 O.co2  99  GLU99      -0.2457
     76  OE2      -29.4710   13.3410   72.3680 O.co2  99  GLU99      -0.2457
     77  N        -34.0260   16.9470   67.9560 N.3   103  GLU103     -0.1245
     78  CA       -33.3070   18.0140   67.2860 C.3   103  GLU103      0.1567
     79  C        -33.8710   18.4690   65.9310 C.2   103  GLU103      0.2260
     80  O        -33.6240   19.6020   65.5270 O.2   103  GLU103     -0.2867
     81  CB       -31.8100   17.6480   67.1570 C.3   103  GLU103      0.0388
     82  CG       -31.1250   17.4540   68.5050 C.3   103  GLU103      0.1160
     83  CD       -29.6130   17.2460   68.4340 C.2   103  GLU103      0.3649
     84  OE1      -29.0460   16.8640   69.4810 O.co2 103  GLU103     -0.2457
     85  OE2      -28.9880   17.4650   67.3750 O.co2 103  GLU103     -0.2457
     86  N        -33.8420   22.2070   77.1470 N.3   151  ASP151     -0.1225
     87  CA       -33.5690   23.5310   77.6830 C.3   151  ASP151      0.1805
     88  C        -32.1840   24.0370   77.2850 C.2   151  ASP151      0.2598
     89  O        -31.1820   23.3380   77.4500 O.2   151  ASP151     -0.2718
     90  CB       -33.7050   23.5120   79.2050 C.3   151  ASP151      0.1424
     91  CG       -33.4220   24.8570   79.8200 C.2   151  ASP151      0.3668
     92  OD1      -32.2510   25.1300   80.1610 O.co2 151  ASP151     -0.2456
     93  OD2      -34.3630   25.6650   79.9530 O.co2 151  ASP151     -0.2456
     94  N        -32.1390   25.2530   76.7490 N.am  152  GLY152     -0.1942
     95  CA       -30.8710   25.8390   76.3540 C.3   152  GLY152      0.2014
     96  C        -30.3060   25.3150   75.0530 C.2   152  GLY152      0.2638
     97  O        -29.1850   25.6530   74.6740 O.2   152  GLY152     -0.2714
     98  N        -31.0670   24.4730   74.3690 N.am  153  GLU153     -0.1977
     99  CA       -30.5990   23.9340   73.1040 C.3   153  GLU153      0.1602
    100  C        -31.2420   24.7500   71.9830 C.2   153  GLU153      0.2287
    101  O        -32.4550   24.9860   71.9810 O.2   153  GLU153     -0.2864
    102  CB       -30.9780   22.4570   72.9680 C.3   153  GLU153      0.0415
    103  CG       -29.8260   21.5770   72.4850 C.3   153  GLU153      0.1163
    104  CD       -30.2890   20.2340   71.9190 C.2   153  GLU153      0.3649
    105  OE1      -29.4420   19.5070   71.3410 O.co2 153  GLU153     -0.2457
    106  OE2      -31.4930   19.9090   72.0490 O.co2 153  GLU153     -0.2457
@<TRIPOS>BOND
     1    80    79    2
     2    79    78    1
     3    51    52    1
     4    81    78    1
     5    81    82    1
     6    78    77    1
     7    85    83   ar
     8    55    52    1
     9    52    53    1
    10    71    70    2
    11    70    69    1
    12    38    37    1
    13    38    39    1
    14    83    82    1
    15    83    84   ar
    16    37    34    1
    17    33    34    1
    18    40    39    1
    19    40    41    2
    20    53    54    2
    21    53    56   am
    22    43    41    1
    23    69    72    1
    24    69    68    1
    25    72    73    1
    26    34    35    1
    27    41    42    1
    28    36    35    2
    29    73    74    1
    30    56    57    1
    31    47    46    2
    32    46    45    1
    33   105   104   ar
    34    74    75   ar
    35    74    76   ar
    36    57    58    1
    37    59    58    2
    38   104   106   ar
    39   104   103    1
    40   101   100    2
    41   100    99    1
    42    48    45    1
    43    48    49    1
    44    45    44    1
    45    58    60   am
    46    44    50    1
    47    50    49    1
    48   103   102    1
    49   102    99    1
    50    99    98    1
    51    60    61    1
    52    98    96   am
    53    61    62    1
    54    61    64    1
    55    62    63    2
    56    97    96    2
    57    32    30    1
    58    96    95    1
    59    67    65    1
    60    29    30    2
    61    29    28    1
    62    65    64    1
    63    65    66    1
    64    30    31    1
    65    95    94    1
    66    28    27    1
    67    94    88   am
    68    86    87    1
    69    88    89    2
    70    88    87    1
    71    27    26    1
    72    87    90    1
    73    26    23    1
    74    90    91    1
    75    21    19    1
    76    22    23    1
    77    20    19    1
    78    23    24    1
    79    91    93   ar
    80    91    92   ar
    81    19    16    1
    82    11    13   ar
    83    11     8   ar
    84    13    14   ar
    85     4     3    2
    86     5     6    1
    87     5     2    1
    88    16    15    1
    89    16    17    1
    90    24    25    2
    91     8     6   ar
    92     8    10   ar
    93    14    12   ar
    94     3    15   am
    95     3     2    1
    96     6     7   ar
    97    10    12   ar
    98    10     9   ar
    99     2     1    1
   100    17    18    2
   101     7     9   ar
