@<TRIPOS>MOLECULE
tmp/2dsfA02.pdb
 128 121 0 0 0
SMALL
GASTEIGER

@<TRIPOS>ATOM
      1  N         21.6040   10.3320    7.3560 N.3    74  ARG74      -0.1231
      2  CA        21.8150    9.6210    6.0910 C.3    74  ARG74       0.1694
      3  C         21.6090   10.6100    4.9320 C.2    74  ARG74       0.2592
      4  O         21.0790   11.7030    5.1320 O.2    74  ARG74      -0.2718
      5  CB        20.8230    8.4570    5.9620 C.3    74  ARG74       0.0321
      6  CG        19.3870    8.8980    6.1090 C.3    74  ARG74       0.0489
      7  CD        18.3910    7.9030    5.5530 C.3    74  ARG74       0.2205
      8  NE        17.0780    8.5290    5.3900 N.pl3  74  ARG74      -0.0865
      9  CZ        16.3720    9.0760    6.3800 C.cat  74  ARG74       0.5346
     10  NH1       16.8470    9.0750    7.6240 N.pl3  74  ARG74       0.1354
     11  NH2       15.1920    9.6360    6.1240 N.pl3  74  ARG74       0.1354
     12  N         22.0110   10.2100    3.7280 N.am   75  LYS75      -0.1966
     13  CA        21.9090   11.0390    2.5170 C.3    75  LYS75       0.1728
     14  C         20.5920   11.7560    2.1620 C.2    75  LYS75       0.2617
     15  O         19.5110   11.1760    2.2440 O.2    75  LYS75      -0.2715
     16  CB        22.3560   10.2060    1.3140 C.3    75  LYS75       0.0311
     17  CG        22.5170    8.7090    1.5700 C.3    75  LYS75       0.0038
     18  CD        23.5690    8.1210    0.6230 C.3    75  LYS75       0.0206
     19  CE        24.8940    7.8530    1.3450 C.3    75  LYS75       0.1093
     20  NZ        25.3810    9.0170    2.1490 N.3    75  LYS75      -0.1314
     21  N         20.6940   13.0170    1.7380 N.am   76  SER76      -0.1936
     22  CA        19.5060   13.7850    1.3620 C.3    76  SER76       0.2055
     23  C         19.5960   14.5580    0.0290 C.2    76  SER76       0.2643
     24  O         20.6790   14.9200   -0.4500 O.2    76  SER76      -0.2714
     25  CB        19.1340   14.7660    2.4800 C.3    76  SER76       0.2130
     26  OG        20.0030   15.8860    2.4900 O.3    76  SER76      -0.2179
     27  N         18.4290   14.7990   -0.5560 N.am   77  SER77      -0.1949
     28  CA        18.2950   15.5310   -1.8080 C.3    77  SER77       0.1924
     29  C         17.8220   16.9560   -1.4870 C.2    77  SER77       0.2314
     30  O         17.8430   17.8420   -2.3390 O.2    77  SER77      -0.2863
     31  CB        17.2960   14.8060   -2.7110 C.3    77  SER77       0.2116
     32  OG        16.2470   14.2460   -1.9390 O.3    77  SER77      -0.2180
     33  N         10.8930    6.4810    7.9540 N.3    93  LEU93      -0.1245
     34  CA         9.5310    5.9640    7.8580 C.3    93  LEU93       0.1561
     35  C          9.3060    4.5810    8.4520 C.2    93  LEU93       0.2260
     36  O          9.9610    3.6100    8.0740 O.2    93  LEU93      -0.2867
     37  CB         9.0700    5.9510    6.3930 C.3    93  LEU93       0.0270
     38  CG         9.3850    7.1500    5.4860 C.3    93  LEU93       0.0019
     39  CD1        8.6880    6.9730    4.1470 C.3    93  LEU93       0.0001
     40  CD2        8.9390    8.4370    6.1410 C.3    93  LEU93       0.0001
     41  N         11.5740    1.8580    6.2050 N.3   204  ASN204     -0.1225
     42  CA        11.5750    1.7380    4.7390 C.3   204  ASN204      0.1785
     43  C         12.9240    1.4020    4.1270 C.2   204  ASN204      0.2597
     44  O         13.0120    0.6860    3.1320 O.2   204  ASN204     -0.2718
     45  CB        11.1040    3.0310    4.0990 C.3   204  ASN204      0.1169
     46  CG        11.4910    3.0740    2.6310 C.2   204  ASN204      0.2627
     47  OD1       11.0790    2.2100    1.8530 O.2   204  ASN204     -0.2716
     48  ND2       12.2810    4.0830    2.2480 N.am  204  ASN204     -0.0877
     49  N         13.9730    1.9400    4.7290 N.am  205  ASP205     -0.1974
     50  CA        15.3160    1.7450    4.2150 C.3   205  ASP205      0.1709
     51  C         15.6400    0.2550    4.1560 C.2   205  ASP205      0.2293
     52  O         16.3400   -0.2100    3.2590 O.2   205  ASP205     -0.2864
     53  CB        16.3100    2.4730    5.1150 C.3   205  ASP205      0.1436
     54  CG        15.9530    3.9320    5.2960 C.2   205  ASP205      0.3671
     55  OD1       15.0960    4.2480    6.1530 O.co2 205  ASP205     -0.2456
     56  OD2       16.5140    4.7640    4.5560 O.co2 205  ASP205     -0.2456
     57  N         14.5620   -1.7320    0.8470 N.3   208  TRP208     -0.1227
     58  CA        15.4800   -1.3320   -0.2100 C.3   208  TRP208      0.1737
     59  C         16.8930   -1.8880   -0.0820 C.2   208  TRP208      0.2595
     60  O         17.5240   -2.2450   -1.0730 O.2   208  TRP208     -0.2718
     61  CB        15.5540    0.1890   -0.2590 C.3   208  TRP208      0.0564
     62  CG        14.4040    0.8080   -0.9520 C.ar  208  TRP208      0.0003
     63  CD1       13.2160    1.2050   -0.4010 C.ar  208  TRP208      0.0946
     64  CD2       14.3240    1.1030   -2.3490 C.ar  208  TRP208      0.0152
     65  NE1       12.3990    1.7350   -1.3780 N.ar  208  TRP208     -0.2442
     66  CE2       13.0560    1.6830   -2.5840 C.ar  208  TRP208      0.0810
     67  CE3       15.2040    0.9300   -3.4320 C.ar  208  TRP208      0.0012
     68  CZ2       12.6480    2.0980   -3.8550 C.ar  208  TRP208      0.0191
     69  CZ3       14.8040    1.3390   -4.6900 C.ar  208  TRP208      0.0001
     70  CH2       13.5360    1.9170   -4.8940 C.ar  208  TRP208      0.0015
     71  N         17.3850   -1.9490    1.1460 N.am  209  GLU209     -0.1979
     72  CA        18.7300   -2.4240    1.4340 C.3   209  GLU209      0.1602
     73  C         18.9680   -3.9170    1.3100 C.2   209  GLU209      0.2287
     74  O         20.0850   -4.3480    1.0240 O.2   209  GLU209     -0.2864
     75  CB        19.1260   -2.0000    2.8440 C.3   209  GLU209      0.0415
     76  CG        19.6470   -0.5950    2.9530 C.3   209  GLU209      0.1163
     77  CD        20.0220   -0.2320    4.3750 C.2   209  GLU209      0.3649
     78  OE1       20.3190   -1.1550    5.1630 O.co2 209  GLU209     -0.2457
     79  OE2       20.0330    0.9740    4.6990 O.co2 209  GLU209     -0.2457
     80  N         21.1420   -6.0360   -2.9670 N.3   214  GLU214     -0.1245
     81  CA        21.8210   -5.0480   -2.1310 C.3   214  GLU214      0.1567
     82  C         22.4930   -5.6780   -0.9090 C.2   214  GLU214      0.2260
     83  O         23.5580   -5.2330   -0.4960 O.2   214  GLU214     -0.2867
     84  CB        20.8320   -3.9740   -1.6640 C.3   214  GLU214      0.0388
     85  CG        20.3510   -3.0520   -2.7570 C.3   214  GLU214      0.1160
     86  CD        21.4490   -2.1510   -3.2700 C.2   214  GLU214      0.3649
     87  OE1       21.8890   -1.2520   -2.5280 O.co2 214  GLU214     -0.2457
     88  OE2       21.8790   -2.3390   -4.4200 O.co2 214  GLU214     -0.2457
     89  N         12.3700   -6.6510   -4.6940 N.3   225  ARG225     -0.1245
     90  CA        11.4390   -5.6500   -4.1780 C.3   225  ARG225      0.1563
     91  C         10.0090   -5.8070   -4.6710 C.2   225  ARG225      0.2260
     92  O          9.0870   -5.8130   -3.8640 O.2   225  ARG225     -0.2867
     93  CB        11.8680   -4.2410   -4.5720 C.3   225  ARG225      0.0307
     94  CG        13.2910   -3.8770   -4.1850 C.3   225  ARG225      0.0489
     95  CD        13.4990   -2.3550   -4.1950 C.3   225  ARG225      0.2205
     96  NE        14.8670   -2.0490   -3.7820 N.pl3 225  ARG225     -0.0865
     97  CZ        15.9110   -2.0020   -4.6050 C.cat 225  ARG225      0.5346
     98  NH1       15.7480   -2.2180   -5.9040 N.pl3 225  ARG225      0.1354
     99  NH2       17.1030   -1.7400   -4.1210 N.pl3 225  ARG225      0.1354
    100  N          7.8590    1.6250   -3.4000 N.3   241  THR241     -0.1218
    101  CA         8.3280    2.9260   -3.8520 C.3   241  THR241      0.1862
    102  C          7.4190    4.0570   -3.3780 C.2   241  THR241      0.2287
    103  O          7.7490    5.2220   -3.5320 O.2   241  THR241     -0.2866
    104  CB         8.4720    2.9590   -5.3890 C.3   241  THR241      0.1770
    105  OG1        7.3630    2.2880   -6.0040 O.3   241  THR241     -0.2211
    106  CG2        9.7670    2.2910   -5.7920 C.3   241  THR241      0.0375
    107  N          6.6140    4.6930   -0.2290 N.3   243  ALA243     -0.1231
    108  CA         6.7930    4.8180    1.2000 C.3   243  ALA243      0.1694
    109  C          6.2360    6.1420    1.7470 C.2   243  ALA243      0.2591
    110  O          5.5620    6.1750    2.7870 O.2   243  ALA243     -0.2718
    111  CB         8.2540    4.6870    1.5210 C.3   243  ALA243      0.0304
    112  N          6.4950    7.2250    1.0220 N.am  244  GLN244     -0.1979
    113  CA         6.0630    8.5440    1.4510 C.3   244  GLN244      0.1601
    114  C          4.5490    8.6940    1.6210 C.2   244  GLN244      0.2287
    115  O          4.1000    9.4980    2.4360 O.2   244  GLN244     -0.2864
    116  CB         6.6000    9.6080    0.4850 C.3   244  GLN244      0.0394
    117  CG         6.6840   10.9980    1.0940 C.3   244  GLN244      0.0908
    118  CD         7.6530   11.0780    2.2770 C.2   244  GLN244      0.2608
    119  OE1        7.2560   11.3940    3.4130 O.2   244  GLN244     -0.2717
    120  NE2        8.9330   10.8020    2.0140 N.am  244  GLN244     -0.0878
    121  N         23.5520    2.5500    7.2240 N.3   303  ASN303     -0.1240
    122  CA        23.2940    3.6230    6.2530 C.3   303  ASN303      0.1653
    123  C         23.5350    5.0120    6.8160 C.2   303  ASN303      0.2266
    124  O         22.9170    5.9770    6.3800 O.2   303  ASN303     -0.2867
    125  CB        21.8550    3.5680    5.7530 C.3   303  ASN303      0.1155
    126  CG        20.8510    3.8870    6.8390 C.2   303  ASN303      0.2627
    127  OD1       21.2030    4.3160    7.9420 O.2   303  ASN303     -0.2716
    128  ND2       19.5840    3.6850    6.5280 N.am  303  ASN303     -0.0877
@<TRIPOS>BOND
     1   105   104    1
     2    98    97    1
     3   106   104    1
     4   104   101    1
     5    70    69   ar
     6    70    68   ar
     7    89    90    1
     8    69    67   ar
     9    91    90    1
    10    91    92    2
    11    97    99    1
    12    97    96    2
    13    93    94    1
    14    93    90    1
    15    88    86   ar
    16    95    94    1
    17    95    96    1
    18    68    66   ar
    19   101   100    1
    20   101   102    1
    21   103   102    2
    22    67    64   ar
    23    86    85    1
    24    86    87   ar
    25    80    81    1
    26    85    84    1
    27    31    32    1
    28    31    28    1
    29    66    64   ar
    30    66    65   ar
    31    64    62   ar
    32    30    29    2
    33    81    84    1
    34    81    82    1
    35    28    29    1
    36    28    27    1
    37    65    63   ar
    38    60    59    2
    39    62    63   ar
    40    62    61    1
    41    82    83    2
    42    27    23   am
    43    24    23    2
    44    61    58    1
    45   107   108    1
    46    58    59    1
    47    58    57    1
    48    59    71   am
    49    23    22    1
    50   116   117    1
    51   116   113    1
    52    18    19    1
    53    18    17    1
    54   112   113    1
    55   112   109   am
    56    74    73    2
    57   117   118    1
    58    71    72    1
    59   108   111    1
    60   108   109    1
    61    73    72    1
    62    16    17    1
    63    16    13    1
    64    19    20    1
    65    22    21    1
    66    22    25    1
    67    72    75    1
    68   113   114    1
    69   114   115    2
    70    21    14   am
    71   109   110    2
    72    47    46    2
    73   120   118   am
    74    14    15    2
    75    14    13    1
    76    48    46   am
    77   118   119    2
    78    25    26    1
    79    13    12    1
    80    46    45    1
    81    75    76    1
    82    76    77    1
    83    44    43    2
    84    52    51    2
    85    12     3   am
    86    45    42    1
    87    43    49   am
    88    43    42    1
    89    39    38    1
    90    51    50    1
    91    50    49    1
    92    50    53    1
    93    77    79   ar
    94    77    78   ar
    95    56    54   ar
    96    42    41    1
    97     3     4    2
    98     3     2    1
    99    53    54    1
   100    54    55   ar
   101     8     7    1
   102     8     9    2
   103    38    40    1
   104    38    37    1
   105     7     6    1
   106   125   122    1
   107   125   126    1
   108     5     2    1
   109     5     6    1
   110     2     1    1
   111    11     9    1
   112   122   123    1
   113   122   121    1
   114   124   123    2
   115     9    10    1
   116    37    34    1
   117   128   126   am
   118   126   127    2
   119    34    33    1
   120    34    35    1
   121    36    35    2
