@<TRIPOS>MOLECULE
tmp/2dt1A01.pdb
 201 203 0 0 0
SMALL
GASTEIGER

@<TRIPOS>ATOM
      1  N         17.7190   -0.9970   43.1730 N.3     8  THR8       -0.1203
      2  CA        17.2340   -2.3160   42.7830 C.3     8  THR8        0.1994
      3  C         18.3110   -3.2030   42.1590 C.2     8  THR8        0.2619
      4  O         19.0890   -2.7660   41.3080 O.2     8  THR8       -0.2717
      5  CB        16.0370   -2.2150   41.8180 C.3     8  THR8        0.1784
      6  OG1       16.4750   -1.7230   40.5430 O.3     8  THR8       -0.2211
      7  CG2       14.9810   -1.2720   42.3990 C.3     8  THR8        0.0376
      8  N         18.3290   -4.4550   42.6030 N.am    9  SER9       -0.1937
      9  CA        19.2880   -5.4720   42.1640 C.3     9  SER9        0.2055
     10  C         19.3720   -5.7460   40.6690 C.2     9  SER9        0.2643
     11  O         20.4560   -5.9640   40.1250 O.2     9  SER9       -0.2714
     12  CB        18.9750   -6.8010   42.8480 C.3     9  SER9        0.2130
     13  OG        19.8500   -7.0100   43.9300 O.3     9  SER9       -0.2179
     14  N         18.2210   -5.7670   40.0160 N.am   10  TRP10      -0.1973
     15  CA        18.1750   -6.0650   38.5950 C.3    10  TRP10       0.1640
     16  C         18.6470   -4.9370   37.6700 C.2    10  TRP10       0.2290
     17  O         18.7830   -5.1420   36.4660 O.2    10  TRP10      -0.2864
     18  CB        16.7560   -6.5270   38.2270 C.3    10  TRP10       0.0576
     19  CG        15.6800   -5.4900   38.4110 C.ar   10  TRP10       0.0006
     20  CD1       15.2280   -4.6090   37.4710 C.ar   10  TRP10       0.0946
     21  CD2       14.9230   -5.2290   39.6060 C.ar   10  TRP10       0.0152
     22  NE1       14.2320   -3.8190   38.0020 N.ar   10  TRP10      -0.2442
     23  CE2       14.0250   -4.1770   39.3080 C.ar   10  TRP10       0.0810
     24  CE3       14.9120   -5.7840   40.8970 C.ar   10  TRP10       0.0012
     25  CZ2       13.1280   -3.6600   40.2580 C.ar   10  TRP10       0.0191
     26  CZ3       14.0180   -5.2700   41.8420 C.ar   10  TRP10       0.0001
     27  CH2       13.1370   -4.2200   41.5130 C.ar   10  TRP10       0.0015
     28  N         21.8050   -5.3240   35.2080 N.3    13  TYR13      -0.1227
     29  CA        21.7200   -5.9830   33.9010 C.3    13  TYR13       0.1736
     30  C         21.3180   -5.1290   32.6940 C.2    13  TYR13       0.2595
     31  O         21.3290   -5.6140   31.5610 O.2    13  TYR13      -0.2718
     32  CB        20.7620   -7.1740   33.9790 C.3    13  TYR13       0.0548
     33  CG        21.0510   -8.1500   35.1010 C.ar   13  TYR13      -0.0200
     34  CD1       22.2740   -8.8170   35.1810 C.ar   13  TYR13      -0.0009
     35  CD2       20.0870   -8.4190   36.0780 C.ar   13  TYR13      -0.0009
     36  CE1       22.5300   -9.7280   36.2070 C.ar   13  TYR13       0.0417
     37  CE2       20.3310   -9.3270   37.1020 C.ar   13  TYR13       0.0417
     38  CZ        21.5530   -9.9790   37.1620 C.ar   13  TYR13       0.1957
     39  OH        21.7910  -10.8890   38.1690 O.3    13  TYR13      -0.2866
     40  N         20.9570   -3.8720   32.9190 N.am   14  ARG14      -0.1980
     41  CA        20.5600   -3.0120   31.8100 C.3    14  ARG14       0.1597
     42  C         21.7550   -2.7350   30.9080 C.2    14  ARG14       0.2287
     43  O         22.8750   -2.5640   31.3850 O.2    14  ARG14      -0.2864
     44  CB        19.9550   -1.7170   32.3550 C.3    14  ARG14       0.0334
     45  CG        18.6140   -1.9740   33.0160 C.3    14  ARG14       0.0492
     46  CD        18.0650   -0.7820   33.7630 C.3    14  ARG14       0.2205
     47  NE        16.8360   -1.1600   34.4530 N.pl3  14  ARG14      -0.0865
     48  CZ        16.4270   -0.6420   35.6050 C.cat  14  ARG14       0.5346
     49  NH1       17.1490    0.2930   36.2100 N.pl3  14  ARG14       0.1354
     50  NH2       15.3100   -1.0900   36.1620 N.pl3  14  ARG14       0.1354
     51  N         15.7720   -6.8320   46.0150 N.3    37  PHE37      -0.1241
     52  CA        14.9950   -7.3280   47.1490 C.3    37  PHE37       0.1605
     53  C         15.6340   -8.6340   47.6120 C.2    37  PHE37       0.2264
     54  O         16.3490   -9.2910   46.8530 O.2    37  PHE37      -0.2867
     55  CB        13.5470   -7.6500   46.7260 C.3    37  PHE37       0.0534
     56  CG        12.6910   -6.4410   46.4510 C.ar   37  PHE37      -0.0203
     57  CD1       12.1870   -5.6690   47.4990 C.ar   37  PHE37      -0.0042
     58  CD2       12.3730   -6.0830   45.1390 C.ar   37  PHE37      -0.0042
     59  CE1       11.3750   -4.5540   47.2390 C.ar   37  PHE37      -0.0003
     60  CE2       11.5650   -4.9740   44.8680 C.ar   37  PHE37      -0.0003
     61  CZ        11.0670   -4.2100   45.9170 C.ar   37  PHE37      -0.0000
     62  N         18.9600  -13.1680   46.4440 N.3    48  TRP48      -0.1227
     63  CA        18.1160  -13.2940   45.2630 C.3    48  TRP48       0.1737
     64  C         18.9970  -13.4560   44.0250 C.2    48  TRP48       0.2595
     65  O         18.9390  -14.4800   43.3460 O.2    48  TRP48      -0.2718
     66  CB        17.2280  -12.0520   45.1230 C.3    48  TRP48       0.0564
     67  CG        16.1830  -12.1470   44.0490 C.ar   48  TRP48       0.0003
     68  CD1       16.3900  -12.2210   42.6980 C.ar   48  TRP48       0.0946
     69  CD2       14.7630  -12.1730   44.2390 C.ar   48  TRP48       0.0152
     70  NE1       15.1830  -12.2920   42.0380 N.ar   48  TRP48      -0.2442
     71  CE2       14.1700  -12.2680   42.9600 C.ar   48  TRP48       0.0810
     72  CE3       13.9340  -12.1270   45.3710 C.ar   48  TRP48       0.0012
     73  CZ2       12.7770  -12.3150   42.7790 C.ar   48  TRP48       0.0191
     74  CZ3       12.5450  -12.1700   45.1910 C.ar   48  TRP48       0.0001
     75  CH2       11.9850  -12.2680   43.9040 C.ar   48  TRP48       0.0015
     76  N         19.8120  -12.4440   43.7350 N.am   49  GLU49      -0.1965
     77  CA        20.7050  -12.4940   42.5810 C.3    49  GLU49       0.1733
     78  C         21.9490  -13.3130   42.9200 C.2    49  GLU49       0.2616
     79  O         22.3710  -13.3740   44.0770 O.2    49  GLU49      -0.2715
     80  CB        21.1290  -11.0800   42.1580 C.3    49  GLU49       0.0429
     81  CG        19.9940  -10.1650   41.7120 C.3    49  GLU49       0.1163
     82  CD        19.2650  -10.6620   40.4740 C.2    49  GLU49       0.3649
     83  OE1       19.8020  -11.5370   39.7580 O.co2  49  GLU49      -0.2457
     84  OE2       18.1480  -10.1640   40.2130 O.co2  49  GLU49      -0.2457
     85  N         22.5380  -13.9310   41.9010 N.am   50  TRP50      -0.1974
     86  CA        23.7320  -14.7560   42.0840 C.3    50  TRP50       0.1640
     87  C         24.9050  -13.9920   42.6920 C.2    50  TRP50       0.2290
     88  O         25.7150  -14.5670   43.4220 O.2    50  TRP50      -0.2864
     89  CB        24.1730  -15.3580   40.7420 C.3    50  TRP50       0.0576
     90  CG        24.5300  -14.3270   39.7170 C.ar   50  TRP50       0.0006
     91  CD1       23.6640  -13.5500   38.9980 C.ar   50  TRP50       0.0946
     92  CD2       25.8500  -13.9110   39.3420 C.ar   50  TRP50       0.0152
     93  NE1       24.3640  -12.6770   38.1970 N.ar   50  TRP50      -0.2442
     94  CE2       25.7070  -12.8790   38.3850 C.ar   50  TRP50       0.0810
     95  CE3       27.1410  -14.3160   39.7130 C.ar   50  TRP50       0.0012
     96  CZ2       26.8090  -12.2330   37.8040 C.ar   50  TRP50       0.0191
     97  CZ3       28.2380  -13.6740   39.1340 C.ar   50  TRP50       0.0001
     98  CH2       28.0620  -12.6480   38.1860 C.ar   50  TRP50       0.0015
     99  N          8.8360   -7.4490   47.5310 N.3    77  GLY77      -0.1210
    100  CA         8.8720   -6.8330   46.2170 C.3    77  GLY77       0.1956
    101  C          7.7040   -7.3130   45.3760 C.2    77  GLY77       0.2612
    102  O          6.9530   -8.1970   45.8010 O.2    77  GLY77      -0.2717
    103  N          7.5390   -6.7540   44.1830 N.am   78  TRP78      -0.1962
    104  CA         6.4240   -7.1600   43.3300 C.3    78  TRP78       0.1771
    105  C          6.6010   -8.4920   42.6230 C.2    78  TRP78       0.2619
    106  O          5.6360   -9.0300   42.0920 O.2    78  TRP78      -0.2715
    107  CB         6.1280   -6.0990   42.2820 C.3    78  TRP78       0.0590
    108  CG         5.7080   -4.7920   42.8480 C.ar   78  TRP78       0.0006
    109  CD1        4.4310   -4.3300   43.0090 C.ar   78  TRP78       0.0946
    110  CD2        6.5750   -3.7210   43.2300 C.ar   78  TRP78       0.0152
    111  NE1        4.4560   -3.0260   43.4540 N.ar   78  TRP78      -0.2442
    112  CE2        5.7620   -2.6310   43.5970 C.ar   78  TRP78       0.0810
    113  CE3        7.9640   -3.5800   43.2990 C.ar   78  TRP78       0.0012
    114  CZ2        6.3000   -1.4040   44.0150 C.ar   78  TRP78       0.0191
    115  CZ3        8.4980   -2.3690   43.7120 C.ar   78  TRP78       0.0001
    116  CH2        7.6690   -1.2980   44.0640 C.ar   78  TRP78       0.0015
    117  N          7.8170   -9.0240   42.5880 N.am   79  ASN79      -0.1972
    118  CA         8.0130  -10.3150   41.9400 C.3    79  ASN79       0.1688
    119  C          8.0240  -11.3930   42.9950 C.2    79  ASN79       0.2292
    120  O          8.4260  -12.5270   42.7520 O.2    79  ASN79      -0.2864
    121  CB         9.3090  -10.3500   41.1300 C.3    79  ASN79       0.1181
    122  CG         9.1750   -9.6390   39.7960 C.2    79  ASN79       0.2629
    123  OD1        9.4780   -8.4590   39.6750 O.2    79  ASN79      -0.2716
    124  ND2        8.7000  -10.3590   38.7890 N.am   79  ASN79      -0.0877
    125  N         10.5270    7.4970   38.1730 N.3   239  PHE239     -0.1241
    126  CA        10.1500    6.9120   36.8910 C.3   239  PHE239      0.1605
    127  C          8.8300    7.5210   36.4380 C.2   239  PHE239      0.2264
    128  O          8.1730    8.2360   37.1940 O.2   239  PHE239     -0.2867
    129  CB         9.9590    5.4040   37.0240 C.3   239  PHE239      0.0534
    130  CG         8.8660    5.0200   37.9820 C.ar  239  PHE239     -0.0203
    131  CD1        9.1290    4.9100   39.3430 C.ar  239  PHE239     -0.0042
    132  CD2        7.5670    4.7990   37.5300 C.ar  239  PHE239     -0.0042
    133  CE1        8.1130    4.5830   40.2400 C.ar  239  PHE239     -0.0003
    134  CE2        6.5380    4.4710   38.4220 C.ar  239  PHE239     -0.0003
    135  CZ         6.8140    4.3620   39.7810 C.ar  239  PHE239     -0.0000
    136  N          5.0650    6.7250   34.0210 N.3   241  ARG241     -0.1245
    137  CA         4.2130    5.6550   33.5080 C.3   241  ARG241      0.1563
    138  C          3.7660    6.0860   32.0970 C.2   241  ARG241      0.2260
    139  O          3.3410    7.2230   31.8880 O.2   241  ARG241     -0.2867
    140  CB         3.0150    5.4040   34.4540 C.3   241  ARG241      0.0307
    141  CG         3.4270    5.1990   35.9110 C.3   241  ARG241      0.0489
    142  CD         2.4870    4.2780   36.6550 C.3   241  ARG241      0.2205
    143  NE         3.0410    2.9250   36.7440 N.pl3 241  ARG241     -0.0865
    144  CZ         3.3810    2.3010   37.8730 C.cat 241  ARG241      0.5346
    145  NH1        3.2380    2.8940   39.0520 N.pl3 241  ARG241      0.1354
    146  NH2        3.8390    1.0570   37.8160 N.pl3 241  ARG241      0.1354
    147  N         15.4010    0.4080   29.8710 N.3   266  THR266     -0.1203
    148  CA        14.6070   -0.2520   30.8920 C.3   266  THR266      0.1994
    149  C         13.7740   -1.4280   30.3600 C.2   266  THR266      0.2618
    150  O         13.4260   -2.3360   31.1100 O.2   266  THR266     -0.2717
    151  CB        13.7430    0.8090   31.6440 C.3   266  THR266      0.1784
    152  OG1       13.1780    0.2300   32.8250 O.3   266  THR266     -0.2211
    153  CG2       12.6640    1.3510   30.7610 C.3   266  THR266      0.0376
    154  N         13.4700   -1.4050   29.0660 N.am  267  LYS267     -0.1965
    155  CA        12.7360   -2.4790   28.3940 C.3   267  LYS267      0.1728
    156  C         11.5430   -3.0790   29.1250 C.2   267  LYS267      0.2616
    157  O         11.4080   -4.2980   29.2170 O.2   267  LYS267     -0.2715
    158  CB        13.7210   -3.5900   28.0300 C.3   267  LYS267      0.0311
    159  CG        15.0390   -3.0180   27.5470 C.3   267  LYS267      0.0038
    160  CD        15.6130   -3.7460   26.3480 C.3   267  LYS267      0.0206
    161  CE        16.5830   -4.8310   26.7760 C.3   267  LYS267      0.1093
    162  NZ        17.4660   -4.3180   27.8630 N.3   267  LYS267     -0.1314
    163  N         10.6690   -2.2220   29.6300 N.am  268  GLU268     -0.1977
    164  CA         9.4860   -2.6790   30.3360 C.3   268  GLU268      0.1602
    165  C          8.3180   -1.8120   29.8890 C.2   268  GLU268      0.2287
    166  O          8.2980   -0.6120   30.1550 O.2   268  GLU268     -0.2864
    167  CB         9.6910   -2.5480   31.8440 C.3   268  GLU268      0.0415
    168  CG         8.6490   -3.2860   32.6640 C.3   268  GLU268      0.1163
    169  CD         8.8360   -3.0890   34.1560 C.2   268  GLU268      0.3649
    170  OE1        9.9790   -3.2390   34.6360 O.co2 268  GLU268     -0.2457
    171  OE2        7.8430   -2.7880   34.8530 O.co2 268  GLU268     -0.2457
    172  N          6.5090    1.6780   31.7330 N.3   271  ILE271     -0.1245
    173  CA         7.3130    2.6040   32.5160 C.3   271  ILE271      0.1561
    174  C          8.5780    3.0330   31.7890 C.2   271  ILE271      0.2260
    175  O          9.0640    2.3430   30.8890 O.2   271  ILE271     -0.2867
    176  CB         7.7190    2.0120   33.9030 C.3   271  ILE271      0.0252
    177  CG1        8.8280    0.9750   33.7390 C.3   271  ILE271      0.0019
    178  CG2        6.5070    1.4000   34.6010 C.3   271  ILE271      0.0019
    179  CD1       10.2180    1.5680   33.7900 C.3   271  ILE271      0.0001
    180  N         11.9900    6.1020   44.8630 N.3   330  TRP330     -0.1241
    181  CA        12.0420    4.8590   44.1050 C.3   330  TRP330      0.1605
    182  C         12.2500    5.3010   42.6570 C.2   330  TRP330      0.2264
    183  O         11.3460    5.8750   42.0540 O.2   330  TRP330     -0.2867
    184  CB        10.7270    4.0660   44.2300 C.3   330  TRP330      0.0550
    185  CG        10.7680    2.7710   43.4460 C.ar  330  TRP330      0.0003
    186  CD1       10.5970    2.6200   42.0930 C.ar  330  TRP330      0.0946
    187  CD2       11.1410    1.4800   43.9450 C.ar  330  TRP330      0.0152
    188  NE1       10.8510    1.3190   41.7240 N.ar  330  TRP330     -0.2442
    189  CE2       11.1870    0.5980   42.8410 C.ar  330  TRP330      0.0810
    190  CE3       11.4440    0.9830   45.2180 C.ar  330  TRP330      0.0012
    191  CZ2       11.5320   -0.7530   42.9740 C.ar  330  TRP330      0.0191
    192  CZ3       11.7860   -0.3590   45.3490 C.ar  330  TRP330      0.0001
    193  CH2       11.8270   -1.2110   44.2320 C.ar  330  TRP330      0.0015
    194  N         16.8510    4.7130   38.5190 N.3   334  LEU334     -0.1245
    195  CA        15.9360    5.1940   37.4980 C.3   334  LEU334      0.1561
    196  C         16.0970    6.7100   37.3230 C.2   334  LEU334      0.2260
    197  O         15.5660    7.2980   36.3830 O.2   334  LEU334     -0.2867
    198  CB        14.5000    4.8170   37.8750 C.3   334  LEU334      0.0270
    199  CG        14.2030    3.3160   37.9030 C.3   334  LEU334      0.0019
    200  CD1       12.8060    3.0620   38.4630 C.3   334  LEU334      0.0001
    201  CD2       14.3240    2.7560   36.4850 C.3   334  LEU334      0.0001
@<TRIPOS>BOND
     1   160   161    1
     2   160   159    1
     3   161   162    1
     4   159   158    1
     5   158   155    1
     6   155   154    1
     7   155   156    1
     8   154   149   am
     9   156   157    2
    10   156   163   am
    11   163   164    1
    12   147   148    1
    13   165   166    2
    14   165   164    1
    15   164   167    1
    16   149   148    1
    17   149   150    2
    18   153   151    1
    19   175   174    2
    20   148   151    1
    21    42    43    2
    22    42    41    1
    23    31    30    2
    24   151   152    1
    25   172   173    1
    26   174   173    1
    27    41    44    1
    28    41    40    1
    29   167   168    1
    30   139   138    2
    31   138   137    1
    32    44    45    1
    33   173   176    1
    34   168   169    1
    35    30    40   am
    36    30    29    1
    37    45    46    1
    38   137   136    1
    39   137   140    1
    40   177   179    1
    41   177   176    1
    42    46    47    1
    43    29    32    1
    44    29    28    1
    45   176   178    1
    46    32    33    1
    47   169   170   ar
    48   169   171   ar
    49    47    48    2
    50   140   141    1
    51    33    34   ar
    52    33    35   ar
    53    34    36   ar
    54    48    50    1
    55    48    49    1
    56   141   142    1
    57    35    37   ar
    58    36    38   ar
    59   197   196    2
    60   127   126    1
    61   127   128    2
    62    17    16    2
    63   201   199    1
    64   142   143    1
    65   143   144    2
    66   126   129    1
    67   126   125    1
    68   129   130    1
    69    37    38   ar
    70    38    39    1
    71   196   195    1
    72    20    22   ar
    73    20    19   ar
    74   195   198    1
    75   195   194    1
    76   132   130   ar
    77   132   134   ar
    78    16    15    1
    79    96    98   ar
    80    96    94   ar
    81   146   144    1
    82   144   145    1
    83   198   199    1
    84   199   200    1
    85   130   131   ar
    86    22    23   ar
    87    98    97   ar
    88    93    94   ar
    89    93    91   ar
    90    18    19    1
    91    18    15    1
    92    94    92   ar
    93    19    21   ar
    94   134   135   ar
    95    15    14    1
    96   124   122   am
    97    91    90   ar
    98    97    95   ar
    99    23    21   ar
   100    23    25   ar
   101    92    95   ar
   102    92    90   ar
   103   131   133   ar
   104    21    24   ar
   105   123   122    2
   106    90    89    1
   107    83    82   ar
   108   135   133   ar
   109   122   121    1
   110    14    10   am
   111    11    10    2
   112    84    82   ar
   113    25    27   ar
   114    82    81    1
   115     6     5    1
   116    10     9    1
   117    89    86    1
   118    24    26   ar
   119   121   118    1
   120     4     3    2
   121    27    26   ar
   122    81    80    1
   123   188   186   ar
   124   188   189   ar
   125     5     7    1
   126     5     2    1
   127    85    86    1
   128    85    78   am
   129   118   117    1
   130   118   119    1
   131    70    68   ar
   132    70    71   ar
   133   183   182    2
   134    86    87    1
   135   106   105    2
   136   186   185   ar
   137    80    77    1
   138     3     8   am
   139     3     2    1
   140     9     8    1
   141     9    12    1
   142   107   108    1
   143   107   104    1
   144    77    78    1
   145    77    76    1
   146   117   105   am
   147   105   104    1
   148   182   181    1
   149    87    88    2
   150    68    67   ar
   151   120   119    2
   152    73    71   ar
   153    73    75   ar
   154     2     1    1
   155   189   191   ar
   156   189   187   ar
   157    12    13    1
   158   108   109   ar
   159   108   110   ar
   160    78    79    2
   161    71    69   ar
   162   191   193   ar
   163   109   111   ar
   164   110   113   ar
   165   110   112   ar
   166   113   115   ar
   167   104   103    1
   168    65    64    2
   169   185   187   ar
   170   185   184    1
   171   111   112   ar
   172   112   114   ar
   173   115   116   ar
   174    76    64   am
   175    75    74   ar
   176   187   190   ar
   177   114   116   ar
   178    64    63    1
   179    67    69   ar
   180    67    66    1
   181   181   184    1
   182   181   180    1
   183   103   101   am
   184   193   192   ar
   185    69    72   ar
   186    60    58   ar
   187    60    61   ar
   188    66    63    1
   189    58    56   ar
   190    74    72   ar
   191   190   192   ar
   192    63    62    1
   193   101   102    2
   194   101   100    1
   195    61    59   ar
   196    51    52    1
   197   100    99    1
   198    56    55    1
   199    56    57   ar
   200    55    52    1
   201    54    53    2
   202    52    53    1
   203    59    57   ar
