@<TRIPOS>MOLECULE
tmp/2dt5B01.pdb
 204 198 0 0 0
SMALL
GASTEIGER

@<TRIPOS>ATOM
      1  N         45.4030   42.4710   19.2030 N.3    86  VAL86      -0.1231
      2  CA        45.0140   43.6520   18.4540 C.3    86  VAL86       0.1692
      3  C         43.6080   43.3850   17.9280 C.2    86  VAL86       0.2592
      4  O         43.4100   42.5430   17.0640 O.2    86  VAL86      -0.2718
      5  CB        45.9840   43.9210   17.2820 C.3    86  VAL86       0.0266
      6  CG1       45.4120   45.0230   16.3590 C.3    86  VAL86       0.0020
      7  CG2       47.3510   44.3540   17.8410 C.3    86  VAL86       0.0020
      8  N         42.6310   44.1080   18.4620 N.am   87  GLY87      -0.1957
      9  CA        41.2570   43.8970   18.0560 C.3    87  GLY87       0.1869
     10  C         40.5700   43.2490   19.2470 C.2    87  GLY87       0.2309
     11  O         40.4110   42.0320   19.3050 O.2    87  GLY87      -0.2863
     12  N         37.5520   42.8270   20.3140 N.3    89  GLY89      -0.1210
     13  CA        36.1330   42.6370   20.1420 C.3    89  GLY89       0.1956
     14  C         35.7660   41.3630   20.8820 C.2    89  GLY89       0.2612
     15  O         36.3590   41.0390   21.9140 O.2    89  GLY89      -0.2717
     16  N         34.7990   40.6280   20.3540 N.am   90  ARG90      -0.1965
     17  CA        34.3740   39.3900   20.9800 C.3    90  ARG90       0.1729
     18  C         35.4920   38.3410   21.0600 C.2    90  ARG90       0.2616
     19  O         35.8250   37.8800   22.1530 O.2    90  ARG90      -0.2715
     20  CB        33.1460   38.8520   20.2450 C.3    90  ARG90       0.0348
     21  CG        31.9400   39.7960   20.4200 C.3    90  ARG90       0.0492
     22  CD        30.7770   39.4220   19.5110 C.3    90  ARG90       0.2205
     23  NE        31.1480   39.4470   18.1010 N.pl3  90  ARG90      -0.0865
     24  CZ        30.3730   38.9880   17.1250 C.cat  90  ARG90       0.5346
     25  NH1       29.1850   38.4840   17.4230 N.pl3  90  ARG90       0.1354
     26  NH2       30.8000   38.9830   15.8680 N.pl3  90  ARG90       0.1354
     27  N         36.0800   37.9650   19.9260 N.am   91  LEU91      -0.1963
     28  CA        37.1530   36.9730   19.9480 C.3    91  LEU91       0.1728
     29  C         38.3450   37.4850   20.7640 C.2    91  LEU91       0.2616
     30  O         38.8840   36.7720   21.6130 O.2    91  LEU91      -0.2715
     31  CB        37.6080   36.6340   18.5260 C.3    91  LEU91       0.0311
     32  CG        38.8060   35.6770   18.4160 C.3    91  LEU91       0.0022
     33  CD1       38.5120   34.3850   19.1750 C.3    91  LEU91       0.0001
     34  CD2       39.0960   35.3730   16.9290 C.3    91  LEU91       0.0001
     35  N         38.7350   38.7310   20.5220 N.am   92  GLY92      -0.1955
     36  CA        39.8620   39.2940   21.2400 C.3    92  GLY92       0.1869
     37  C         39.6980   39.2790   22.7550 C.2    92  GLY92       0.2309
     38  O         40.6500   38.9780   23.4800 O.2    92  GLY92      -0.2863
     39  N         44.9100   46.1320   22.3310 N.3   111  PHE111     -0.1227
     40  CA        44.6360   47.2960   21.5050 C.3   111  PHE111      0.1736
     41  C         43.3950   47.2070   20.6300 C.2   111  PHE111      0.2595
     42  O         43.0120   46.1340   20.1560 O.2   111  PHE111     -0.2718
     43  CB        45.8510   47.5820   20.6040 C.3   111  PHE111      0.0547
     44  CG        47.1770   47.5350   21.3240 C.ar  111  PHE111     -0.0202
     45  CD1       47.8670   46.3300   21.4730 C.ar  111  PHE111     -0.0042
     46  CD2       47.7440   48.7000   21.8500 C.ar  111  PHE111     -0.0042
     47  CE1       49.1060   46.2900   22.1360 C.ar  111  PHE111     -0.0003
     48  CE2       48.9800   48.6700   22.5140 C.ar  111  PHE111     -0.0003
     49  CZ        49.6620   47.4670   22.6550 C.ar  111  PHE111     -0.0000
     50  N         42.7810   48.3650   20.4080 N.am  112  ASP112     -0.1960
     51  CA        41.5870   48.4750   19.5790 C.3   112  ASP112      0.1840
     52  C         41.5770   49.9240   19.0810 C.2   112  ASP112      0.2622
     53  O         42.4660   50.6950   19.4320 O.2   112  ASP112     -0.2715
     54  CB        40.3560   48.1700   20.4330 C.3   112  ASP112      0.1450
     55  CG        39.1750   47.7120   19.6080 C.2   112  ASP112      0.3671
     56  OD1       38.5210   48.5740   18.9780 O.co2 112  ASP112     -0.2456
     57  OD2       38.8990   46.4880   19.5800 O.co2 112  ASP112     -0.2456
     58  N         40.5980   50.2910   18.2590 N.am  113  VAL113     -0.1963
     59  CA        40.5020   51.6600   17.7580 C.3   113  VAL113      0.1727
     60  C         39.1920   52.2860   18.2020 C.2   113  VAL113      0.2616
     61  O         38.9690   53.4740   18.0190 O.2   113  VAL113     -0.2715
     62  CB        40.5450   51.7130   16.2230 C.3   113  VAL113      0.0290
     63  CG1       41.8920   51.2070   15.7250 C.3   113  VAL113      0.0023
     64  CG2       39.4230   50.8790   15.6430 C.3   113  VAL113      0.0023
     65  N         38.3220   51.4720   18.7820 N.am  114  ASP114     -0.1971
     66  CA        37.0200   51.9260   19.2360 C.3   114  ASP114      0.1709
     67  C         37.1640   52.7120   20.5390 C.2   114  ASP114      0.2293
     68  O         37.6350   52.1870   21.5500 O.2   114  ASP114     -0.2864
     69  CB        36.1180   50.7120   19.4450 C.3   114  ASP114      0.1436
     70  CG        34.6840   51.0880   19.7450 C.2   114  ASP114      0.3671
     71  OD1       34.4290   52.2480   20.1500 O.co2 114  ASP114     -0.2456
     72  OD2       33.8130   50.2110   19.5870 O.co2 114  ASP114     -0.2456
     73  N         36.0380   51.1000   23.6920 N.3   117  LYS117     -0.1245
     74  CA        36.8320   49.9760   24.1980 C.3   117  LYS117      0.1561
     75  C         38.0910   50.5110   24.8630 C.2   117  LYS117      0.2260
     76  O         38.4800   50.0640   25.9510 O.2   117  LYS117     -0.2867
     77  CB        37.2620   49.0610   23.0560 C.3   117  LYS117      0.0271
     78  CG        36.1390   48.4590   22.2450 C.3   117  LYS117      0.0035
     79  CD        35.7310   47.1340   22.8070 C.3   117  LYS117      0.0206
     80  CE        34.7410   46.4200   21.9120 C.3   117  LYS117      0.1093
     81  NZ        34.3590   45.1270   22.5760 N.3   117  LYS117     -0.1314
     82  N         45.3730   51.5170   19.3150 N.3   130  VAL130     -0.1245
     83  CA        46.3440   50.8940   18.4410 C.3   130  VAL130      0.1561
     84  C         47.4770   51.8540   18.0500 C.2   130  VAL130      0.2260
     85  O         48.5450   51.4130   17.6240 O.2   130  VAL130     -0.2867
     86  CB        45.6630   50.3330   17.1830 C.3   130  VAL130      0.0252
     87  CG1       45.2520   51.4580   16.2680 C.3   130  VAL130      0.0019
     88  CG2       46.5950   49.3740   16.4810 C.3   130  VAL130      0.0019
     89  N         43.0050   39.8310   15.8240 N.3   147  THR147     -0.1203
     90  CA        41.5920   39.4980   15.8430 C.3   147  THR147      0.1994
     91  C         40.7150   40.6970   15.4390 C.2   147  THR147      0.2618
     92  O         39.7710   41.0500   16.1450 O.2   147  THR147     -0.2717
     93  CB        41.1960   38.9980   17.2560 C.3   147  THR147      0.1784
     94  OG1       41.7070   39.9130   18.2350 O.3   147  THR147     -0.2211
     95  CG2       41.8280   37.6180   17.5290 C.3   147  THR147      0.0376
     96  N         41.0590   41.3430   14.3240 N.am  148  VAL148     -0.1966
     97  CA        40.2600   42.4550   13.8120 C.3   148  VAL148      0.1712
     98  C         39.4750   41.8860   12.6350 C.2   148  VAL148      0.2458
     99  O         39.8170   40.8180   12.1200 O.2   148  VAL148     -0.2730
    100  CB        41.1490   43.6410   13.3020 C.3   148  VAL148      0.0289
    101  CG1       42.0410   44.1460   14.4200 C.3   148  VAL148      0.0023
    102  CG2       41.9930   43.2040   12.1100 C.3   148  VAL148      0.0023
    103  N         38.4010   42.5700   12.2010 N.am  149  PRO149     -0.2716
    104  CA        37.6310   42.0530   11.0620 C.3   149  PRO149      0.1536
    105  C         38.5470   41.8990    9.8350 C.2   149  PRO149      0.2598
    106  O         39.5940   42.5460    9.7520 O.2   149  PRO149     -0.2715
    107  CB        36.5700   43.1350   10.8370 C.3   149  PRO149      0.0310
    108  CG        36.3900   43.7320   12.1840 C.3   149  PRO149      0.0237
    109  CD        37.8110   43.8180   12.7090 C.3   149  PRO149      0.0939
    110  N         38.1480   41.0460    8.8980 N.am  150  ARG150     -0.1978
    111  CA        38.9160   40.8020    7.6760 C.3   150  ARG150      0.1597
    112  C         39.3420   42.0840    6.9660 C.2   150  ARG150      0.2287
    113  O         40.5190   42.2840    6.6250 O.2   150  ARG150     -0.2864
    114  CB        38.0870   39.9600    6.7010 C.3   150  ARG150      0.0334
    115  CG        38.7560   39.7540    5.3570 C.3   150  ARG150      0.0492
    116  CD        38.0750   38.6670    4.5490 C.3   150  ARG150      0.2205
    117  NE        38.9520   38.1830    3.4820 N.pl3 150  ARG150     -0.0865
    118  CZ        38.7460   37.0680    2.7830 C.cat 150  ARG150      0.5346
    119  NH1       37.6850   36.3070    3.0310 N.pl3 150  ARG150      0.1354
    120  NH2       39.6100   36.7060    1.8410 N.pl3 150  ARG150      0.1354
    121  N         39.9010   44.9590    7.9610 N.3   152  ALA152     -0.1245
    122  CA        40.9210   45.7880    8.5880 C.3   152  ALA152      0.1562
    123  C         42.2350   45.0770    8.8610 C.2   152  ALA152      0.2260
    124  O         43.1940   45.7030    9.2930 O.2   152  ALA152     -0.2867
    125  CB        40.3780   46.3730    9.9010 C.3   152  ALA152      0.0290
    126  N         45.9820   46.2170    7.1020 N.3   155  LYS155     -0.1231
    127  CA        46.4880   47.4780    7.6190 C.3   155  LYS155      0.1693
    128  C         46.8750   47.3570    9.0900 C.2   155  LYS155      0.2591
    129  O         47.8130   48.0200    9.5570 O.2   155  LYS155     -0.2718
    130  CB        45.4590   48.6000    7.4120 C.3   155  LYS155      0.0285
    131  CG        45.9660   49.9580    7.8880 C.3   155  LYS155      0.0035
    132  CD        47.4070   50.2070    7.4040 C.3   155  LYS155      0.0206
    133  CE        48.2110   51.0310    8.4130 C.3   155  LYS155      0.1093
    134  NZ        49.6650   51.0710    8.0930 N.3   155  LYS155     -0.1314
    135  N         46.1620   46.5100    9.8290 N.am  156  ALA156     -0.1980
    136  CA        46.5110   46.3140   11.2320 C.3   156  ALA156      0.1597
    137  C         47.8890   45.6440   11.2580 C.2   156  ALA156      0.2287
    138  O         48.7700   46.0080   12.0570 O.2   156  ALA156     -0.2864
    139  CB        45.4650   45.4210   11.9320 C.3   156  ALA156      0.0319
    140  N         50.6750   48.0230   10.5490 N.3   159  LEU159     -0.1245
    141  CA        50.9750   48.7840   11.7500 C.3   159  LEU159      0.1561
    142  C         51.8290   47.9690   12.7240 C.2   159  LEU159      0.2260
    143  O         52.7190   48.5090   13.3830 O.2   159  LEU159     -0.2867
    144  CB        49.6800   49.2190   12.4350 C.3   159  LEU159      0.0270
    145  CG        48.8880   50.2920   11.6790 C.3   159  LEU159      0.0019
    146  CD1       47.5550   50.5860   12.3870 C.3   159  LEU159      0.0001
    147  CD2       49.7450   51.5590   11.5890 C.3   159  LEU159      0.0001
    148  N         44.0820   35.4970   13.1680 N.3   171  PHE171     -0.1227
    149  CA        42.7840   34.8240   13.2150 C.3   171  PHE171      0.1736
    150  C         41.8580   35.2950   12.0930 C.2   171  PHE171      0.2595
    151  O         40.8970   34.6030   11.7500 O.2   171  PHE171     -0.2718
    152  CB        42.0880   35.0530   14.5570 C.3   171  PHE171      0.0547
    153  CG        42.8010   34.4280   15.7320 C.ar  171  PHE171     -0.0202
    154  CD1       43.9720   34.9910   16.2330 C.ar  171  PHE171     -0.0042
    155  CD2       42.3080   33.2620   16.3130 C.ar  171  PHE171     -0.0042
    156  CE1       44.6520   34.4070   17.3030 C.ar  171  PHE171     -0.0003
    157  CE2       42.9760   32.6560   17.3900 C.ar  171  PHE171     -0.0003
    158  CZ        44.1470   33.2280   17.8850 C.ar  171  PHE171     -0.0000
    159  N         42.1350   36.4710   11.5380 N.am  172  ALA172     -0.1966
    160  CA        41.2970   37.0070   10.4540 C.3   172  ALA172      0.1713
    161  C         41.3390   36.0900    9.2330 C.2   172  ALA172      0.2458
    162  O         42.4040   35.6090    8.8420 O.2   172  ALA172     -0.2730
    163  CB        41.7660   38.4100   10.0750 C.3   172  ALA172      0.0333
    164  N         40.1780   35.8220    8.6210 N.am  173  PRO173     -0.2727
    165  CA        40.1180   34.9470    7.4440 C.3   173  PRO173      0.1402
    166  C         40.6650   35.6290    6.2030 C.2   173  PRO173      0.2269
    167  O         39.9140   35.9070    5.2760 O.2   173  PRO173     -0.2865
    168  CB        38.6220   34.6480    7.3120 C.3   173  PRO173      0.0296
    169  CG        38.0090   35.9610    7.7450 C.3   173  PRO173      0.0237
    170  CD        38.8400   36.3330    8.9690 C.3   173  PRO173      0.0939
    171  N         45.1390   31.0280   12.0120 N.3   187  VAL187     -0.1231
    172  CA        44.3650   30.0930   12.8140 C.3   187  VAL187      0.1692
    173  C         43.0770   29.7630   12.0880 C.2   187  VAL187      0.2592
    174  O         42.5070   30.6060   11.3990 O.2   187  VAL187     -0.2718
    175  CB        43.9720   30.7060   14.1920 C.3   187  VAL187      0.0266
    176  CG1       43.1580   29.6800   15.0050 C.3   187  VAL187      0.0020
    177  CG2       45.2270   31.1660   14.9470 C.3   187  VAL187      0.0020
    178  N         42.6290   28.5250   12.2240 N.am  188  ASP188     -0.1960
    179  CA        41.3540   28.1320   11.6330 C.3   188  ASP188      0.1840
    180  C         40.6910   27.2490   12.6690 C.2   188  ASP188      0.2622
    181  O         40.9800   26.0710   12.7540 O.2   188  ASP188     -0.2715
    182  CB        41.5610   27.3700   10.3230 C.3   188  ASP188      0.1450
    183  CG        40.2770   26.7760    9.7940 C.2   188  ASP188      0.3671
    184  OD1       39.2020   27.3780   10.0100 O.co2 188  ASP188     -0.2456
    185  OD2       40.3460   25.7070    9.1560 O.co2 188  ASP188     -0.2456
    186  N         39.8360   27.8520   13.4880 N.am  189  PHE189     -0.1960
    187  CA        39.1380   27.1510   14.5570 C.3   189  PHE189      0.1771
    188  C         38.1450   26.1320   14.0430 C.2   189  PHE189      0.2619
    189  O         37.6380   25.3280   14.8090 O.2   189  PHE189     -0.2715
    190  CB        38.4060   28.1600   15.4580 C.3   189  PHE189      0.0574
    191  CG        39.2670   28.7490   16.5350 C.ar  189  PHE189     -0.0200
    192  CD1       38.9400   29.9590   17.1150 C.ar  189  PHE189     -0.0042
    193  CD2       40.3990   28.0780   16.9850 C.ar  189  PHE189     -0.0042
    194  CE1       39.7250   30.5020   18.1340 C.ar  189  PHE189     -0.0003
    195  CE2       41.1870   28.6070   17.9990 C.ar  189  PHE189     -0.0003
    196  CZ        40.8500   29.8240   18.5760 C.ar  189  PHE189     -0.0000
    197  N         37.8570   26.1670   12.7480 N.am  190  LEU190     -0.1977
    198  CA        36.9030   25.2220   12.1820 C.3   190  LEU190      0.1596
    199  C         37.5560   24.0280   11.4820 C.2   190  LEU190      0.2287
    200  O         36.8730   23.1680   10.9390 O.2   190  LEU190     -0.2864
    201  CB        35.9420   25.9480   11.2280 C.3   190  LEU190      0.0297
    202  CG        35.0070   26.9580   11.9190 C.3   190  LEU190      0.0022
    203  CD1       33.8670   27.3380   10.9860 C.3   190  LEU190      0.0001
    204  CD2       34.4370   26.3530   13.1600 C.3   190  LEU190      0.0001
@<TRIPOS>BOND
     1   120   118    1
     2   118   119    1
     3   118   117    2
     4   117   116    1
     5   116   115    1
     6   167   166    2
     7   115   114    1
     8   166   165    1
     9   113   112    2
    10   114   111    1
    11   112   111    1
    12   126   127    1
    13   168   165    1
    14   168   169    1
    15   132   131    1
    16   132   133    1
    17   130   127    1
    18   130   131    1
    19   165   164    1
    20   127   128    1
    21   111   110    1
    22   169   170    1
    23   121   122    1
    24   134   133    1
    25   122   123    1
    26   122   125    1
    27   164   170    1
    28   164   161   am
    29   162   161    2
    30   123   124    2
    31   110   105   am
    32   128   129    2
    33   128   135   am
    34   185   183   ar
    35   161   160    1
    36   106   105    2
    37   183   184   ar
    38   183   182    1
    39   135   136    1
    40   105   104    1
    41   163   160    1
    42   182   179    1
    43   160   159    1
    44   140   141    1
    45   107   104    1
    46   107   108    1
    47   200   199    2
    48   203   202    1
    49   104   103    1
    50   201   202    1
    51   201   198    1
    52   136   137    1
    53   136   139    1
    54   137   138    2
    55   174   173    2
    56   199   198    1
    57   159   150   am
    58   147   145    1
    59   179   178    1
    60   179   180    1
    61   145   146    1
    62   145   144    1
    63   151   150    2
    64   141   144    1
    65   141   142    1
    66   202   204    1
    67   171   172    1
    68   173   178   am
    69   173   172    1
    70   150   149    1
    71   102   100    1
    72    99    98    2
    73   198   197    1
    74   108   109    1
    75   103    98   am
    76   103   109    1
    77    98    97    1
    78   180   181    2
    79   180   186   am
    80   142   143    2
    81   197   188   am
    82   172   175    1
    83   148   149    1
    84   149   152    1
    85   100    97    1
    86   100   101    1
    87   186   187    1
    88    97    96    1
    89   188   187    1
    90   188   189    2
    91   175   177    1
    92   175   176    1
    93    96    91   am
    94   152   153    1
    95   187   190    1
    96    91    90    1
    97    91    92    2
    98   190   191    1
    99    64    62    1
   100    63    62    1
   101   153   154   ar
   102   153   155   ar
   103    89    90    1
   104    90    93    1
   105    26    24    1
   106    62    59    1
   107   154   156   ar
   108    87    86    1
   109   155   157   ar
   110     6     5    1
   111    88    86    1
   112   191   193   ar
   113   191   192   ar
   114    34    32    1
   115   193   195   ar
   116     4     3    2
   117   192   194   ar
   118    24    25    1
   119    24    23    2
   120    86    83    1
   121    93    95    1
   122    93    94    1
   123     5     7    1
   124     5     2    1
   125   156   158   ar
   126   157   158   ar
   127    85    84    2
   128    59    60    1
   129    59    58    1
   130     3     2    1
   131     3     8   am
   132   195   196   ar
   133    61    60    2
   134    84    83    1
   135     9     8    1
   136     9    10    1
   137    23    22    1
   138   194   196   ar
   139    60    65   am
   140    58    52   am
   141    32    31    1
   142    32    33    1
   143    83    82    1
   144     2     1    1
   145    31    28    1
   146    65    66    1
   147    56    55   ar
   148    52    53    2
   149    52    51    1
   150    66    69    1
   151    66    67    1
   152    10    11    2
   153    69    70    1
   154    22    21    1
   155    51    50    1
   156    51    54    1
   157    57    55   ar
   158    72    70   ar
   159    55    54    1
   160    70    71   ar
   161    27    28    1
   162    27    18   am
   163    28    29    1
   164    13    12    1
   165    13    14    1
   166    42    41    2
   167    20    21    1
   168    20    17    1
   169    16    14   am
   170    16    17    1
   171    50    41   am
   172    35    29   am
   173    35    36    1
   174    67    68    2
   175    43    44    1
   176    43    40    1
   177    41    40    1
   178    29    30    2
   179    14    15    2
   180    17    18    1
   181    18    19    2
   182    36    37    1
   183    44    45   ar
   184    44    46   ar
   185    45    47   ar
   186    40    39    1
   187    46    48   ar
   188    80    81    1
   189    80    79    1
   190    47    49   ar
   191    78    79    1
   192    78    77    1
   193    48    49   ar
   194    37    38    2
   195    77    74    1
   196    73    74    1
   197    74    75    1
   198    75    76    2
