@<TRIPOS>MOLECULE
tmp/2dt8A00.pdb
 201 188 0 0 0
SMALL
GASTEIGER

@<TRIPOS>ATOM
      1  N         23.4420   24.2930    4.7860 N.3    27  LEU27      -0.1245
      2  CA        22.5740   23.1270    4.8320 C.3    27  LEU27       0.1561
      3  C         21.7500   23.2740    3.5460 C.2    27  LEU27       0.2260
      4  O         21.8260   24.3160    2.8610 O.2    27  LEU27      -0.2867
      5  CB        21.6760   23.1060    6.0700 C.3    27  LEU27       0.0270
      6  CG        22.3360   22.3450    7.2330 C.3    27  LEU27       0.0019
      7  CD1       23.3300   23.2470    7.9630 C.3    27  LEU27       0.0001
      8  CD2       21.2770   21.8200    8.1920 C.3    27  LEU27       0.0001
      9  N         15.0340   18.4800    4.2110 N.3    60  THR60      -0.1203
     10  CA        16.2880   19.1900    4.3750 C.3    60  THR60       0.1994
     11  C         17.4730   18.2140    4.6170 C.2    60  THR60       0.2619
     12  O         17.2250   17.0530    4.9480 O.2    60  THR60      -0.2717
     13  CB        16.3080   20.2430    5.5530 C.3    60  THR60       0.1784
     14  OG1       16.0200   19.5830    6.7910 O.3    60  THR60      -0.2211
     15  CG2       15.2230   21.2810    5.3130 C.3    60  THR60       0.0376
     16  N         18.7070   18.6700    4.4240 N.am   61  SER61      -0.1937
     17  CA        19.8730   17.8230    4.6030 C.3    61  SER61       0.2055
     18  C         20.9980   18.5820    5.3110 C.2    61  SER61       0.2642
     19  O         21.2530   19.7500    5.0510 O.2    61  SER61      -0.2714
     20  CB        20.4090   17.3580    3.2480 C.3    61  SER61       0.2130
     21  OG        19.4620   16.5380    2.5830 O.3    61  SER61      -0.2179
     22  N         21.6830   17.8180    6.1780 N.am   62  GLN62      -0.1976
     23  CA        22.7320   18.4530    6.9520 C.3    62  GLN62       0.1601
     24  C         23.9800   18.3500    6.0610 C.2    62  GLN62       0.2287
     25  O         23.9970   17.6220    5.0780 O.2    62  GLN62      -0.2864
     26  CB        23.0070   17.6440    8.2500 C.3    62  GLN62       0.0394
     27  CG        23.7240   16.3060    8.0170 C.3    62  GLN62       0.0908
     28  CD        22.7680   15.1720    7.7640 C.2    62  GLN62       0.2608
     29  OE1       21.7140   15.3550    7.1620 O.2    62  GLN62      -0.2717
     30  NE2       23.1360   13.9770    8.2210 N.am   62  GLN62      -0.0878
     31  N         23.3360   24.0400   15.2900 N.3    87  ILE87      -0.1245
     32  CA        21.9680   23.7990   15.7040 C.3    87  ILE87       0.1561
     33  C         21.9820   22.5250   16.5400 C.2    87  ILE87       0.2260
     34  O         22.8170   21.6290   16.3760 O.2    87  ILE87      -0.2867
     35  CB        21.2190   23.5980   14.3740 C.3    87  ILE87       0.0252
     36  CG1       19.8010   23.1060   14.6650 C.3    87  ILE87       0.0019
     37  CG2       21.9500   22.5930   13.4470 C.3    87  ILE87       0.0019
     38  CD1       18.8940   23.1520   13.4190 C.3    87  ILE87       0.0001
     39  N         17.9430   18.0330   16.6600 N.3    91  LEU91      -0.1231
     40  CA        17.1320   18.5610   15.5810 C.3    91  LEU91       0.1693
     41  C         17.8170   18.2670   14.2370 C.2    91  LEU91       0.2593
     42  O         17.1740   18.2870   13.1800 O.2    91  LEU91      -0.2718
     43  CB        16.9250   20.0920   15.6700 C.3    91  LEU91       0.0284
     44  CG        16.2310   20.6740   16.9020 C.3    91  LEU91       0.0019
     45  CD1       16.1940   22.1990   16.7830 C.3    91  LEU91       0.0001
     46  CD2       14.8160   20.1030   17.0280 C.3    91  LEU91       0.0001
     47  N         19.1130   17.9720   14.2800 N.am   92  SER92      -0.1938
     48  CA        19.8630   17.7780   13.0510 C.3    92  SER92       0.2055
     49  C         21.1470   16.9860   13.2270 C.2    92  SER92       0.2643
     50  O         21.7420   16.9950   14.3030 O.2    92  SER92      -0.2714
     51  CB        20.2040   19.1660   12.4950 C.3    92  SER92       0.2130
     52  OG        21.0430   19.1300   11.3600 O.3    92  SER92      -0.2179
     53  N         21.5790   16.3360   12.1490 N.am   93  GLY93      -0.1954
     54  CA        22.8210   15.5820   12.1930 C.3    93  GLY93       0.1869
     55  C         24.0320   16.4720   11.9550 C.2    93  GLY93       0.2309
     56  O         25.1490   15.9790   11.8460 O.2    93  GLY93      -0.2863
     57  N         18.3130   26.8440   17.7290 N.3   117  ALA117     -0.1231
     58  CA        18.0770   26.8710   16.2900 C.3   117  ALA117      0.1694
     59  C         17.9200   28.3230   15.8290 C.2   117  ALA117      0.2592
     60  O         17.6260   29.1990   16.6380 O.2   117  ALA117     -0.2718
     61  CB        16.8050   26.0660   15.9630 C.3   117  ALA117      0.0304
     62  N         18.0980   28.5660   14.5310 N.am  118  SER118     -0.1952
     63  CA        17.9830   29.9080   13.9480 C.3   118  SER118      0.1924
     64  C         18.8570   30.8950   14.7420 C.2   118  SER118      0.2314
     65  O         19.9690   30.5410   15.1520 O.2   118  SER118     -0.2863
     66  CB        16.5090   30.3460   13.9180 C.3   118  SER118      0.2116
     67  OG        16.3600   31.5570   13.2020 O.3   118  SER118     -0.2180
     68  N         13.2630   31.3860   24.7940 N.3   152  VAL152     -0.1245
     69  CA        12.7330   31.2470   23.4470 C.3   152  VAL152      0.1561
     70  C         11.2540   30.8960   23.4490 C.2   152  VAL152      0.2260
     71  O         10.7990   30.0360   24.2030 O.2   152  VAL152     -0.2867
     72  CB        13.5060   30.2000   22.5730 C.3   152  VAL152      0.0252
     73  CG1       13.6150   28.8560   23.2880 C.3   152  VAL152      0.0019
     74  CG2       12.7860   30.0320   21.2190 C.3   152  VAL152      0.0019
     75  N          7.9320   30.7890   20.3970 N.3   154  PHE154     -0.1241
     76  CA         7.5170   31.0200   19.0210 C.3   154  PHE154      0.1605
     77  C          6.1590   30.3980   18.7720 C.2   154  PHE154      0.2264
     78  O          5.6910   29.5530   19.5380 O.2   154  PHE154     -0.2867
     79  CB         8.5440   30.4880   17.9970 C.3   154  PHE154      0.0534
     80  CG         8.6780   28.9840   17.9520 C.ar  154  PHE154     -0.0203
     81  CD1        9.4370   28.2980   18.9050 C.ar  154  PHE154     -0.0042
     82  CD2        8.0960   28.2550   16.9160 C.ar  154  PHE154     -0.0042
     83  CE1        9.6190   26.9090   18.8130 C.ar  154  PHE154     -0.0003
     84  CE2        8.2700   26.8680   16.8160 C.ar  154  PHE154     -0.0003
     85  CZ         9.0360   26.1910   17.7720 C.ar  154  PHE154     -0.0000
     86  N          6.1070   20.6930   11.3100 N.3   162  LEU162     -0.1245
     87  CA         6.8660   20.1200   12.4100 C.3   162  LEU162      0.1561
     88  C          6.5940   18.6150   12.4590 C.2   162  LEU162      0.2260
     89  O          7.4890   17.8010   12.6500 O.2   162  LEU162     -0.2867
     90  CB         6.4950   20.8120   13.7200 C.3   162  LEU162      0.0270
     91  CG         7.1510   22.1790   13.9370 C.3   162  LEU162      0.0019
     92  CD1        6.5000   22.8840   15.1050 C.3   162  LEU162      0.0001
     93  CD2        8.6320   21.9930   14.1810 C.3   162  LEU162      0.0001
     94  N         10.4100   17.0850   13.6170 N.3   167  ARG167     -0.1245
     95  CA        10.9830   17.8650   14.7080 C.3   167  ARG167      0.1563
     96  C          9.9410   18.4250   15.6760 C.2   167  ARG167      0.2260
     97  O         10.2610   19.2330   16.5430 O.2   167  ARG167     -0.2867
     98  CB        11.8260   19.0170   14.1400 C.3   167  ARG167      0.0307
     99  CG        13.2370   18.6120   13.7270 C.3   167  ARG167      0.0489
    100  CD        13.2870   17.6740   12.5140 C.3   167  ARG167      0.2205
    101  NE        14.6710   17.5010   12.0860 N.pl3 167  ARG167     -0.0865
    102  CZ        15.0680   16.7600   11.0580 C.cat 167  ARG167      0.5346
    103  NH1       14.1830   16.1010   10.3250 N.pl3 167  ARG167      0.1354
    104  NH2       16.3580   16.6780   10.7700 N.pl3 167  ARG167      0.1354
    105  N         11.8210   25.5020   23.3450 N.3   187  LEU187     -0.1245
    106  CA        12.7530   24.3890   23.2220 C.3   187  LEU187      0.1561
    107  C         13.3350   24.1510   24.6070 C.2   187  LEU187      0.2260
    108  O         13.5950   25.1000   25.3440 O.2   187  LEU187     -0.2867
    109  CB        13.9030   24.6950   22.2520 C.3   187  LEU187      0.0270
    110  CG        13.6080   24.5700   20.7530 C.3   187  LEU187      0.0019
    111  CD1       13.0600   25.8770   20.2310 C.3   187  LEU187      0.0001
    112  CD2       14.8860   24.2020   20.0050 C.3   187  LEU187      0.0001
    113  N         11.9750   20.6250   20.7490 N.3   192  VAL192     -0.1245
    114  CA        10.7820   21.4620   20.7780 C.3   192  VAL192      0.1561
    115  C          9.8250   20.9450   21.8530 C.2   192  VAL192      0.2260
    116  O          9.6480   19.7350   22.0120 O.2   192  VAL192     -0.2867
    117  CB        10.0740   21.4580   19.4040 C.3   192  VAL192      0.0252
    118  CG1        8.7270   22.1780   19.4980 C.3   192  VAL192      0.0019
    119  CG2       10.9720   22.1440   18.3690 C.3   192  VAL192      0.0019
    120  N         12.4500   36.5810   15.0280 N.3   227  LEU227     -0.1245
    121  CA        12.4180   35.7970   13.7990 C.3   227  LEU227      0.1561
    122  C         11.0070   35.6160   13.2360 C.2   227  LEU227      0.2260
    123  O         10.0210   35.5700   13.9610 O.2   227  LEU227     -0.2867
    124  CB        12.9690   34.3970   14.0950 C.3   227  LEU227      0.0270
    125  CG        14.4240   34.3680   14.5730 C.3   227  LEU227      0.0019
    126  CD1       14.7010   33.0960   15.3630 C.3   227  LEU227      0.0001
    127  CD2       15.3430   34.4930   13.3600 C.3   227  LEU227      0.0001
    128  N         13.5900   33.8200    9.0240 N.3   257  LEU257     -0.1245
    129  CA        14.0940   32.4730    9.2400 C.3   257  LEU257      0.1561
    130  C         14.7000   32.0050    7.9250 C.2   257  LEU257      0.2260
    131  O         14.2700   32.4350    6.8400 O.2   257  LEU257     -0.2867
    132  CB        12.9370   31.5260    9.5520 C.3   257  LEU257      0.0270
    133  CG        12.2450   31.6260   10.9030 C.3   257  LEU257      0.0019
    134  CD1       10.9990   30.7550   10.8930 C.3   257  LEU257      0.0001
    135  CD2       13.2110   31.1680   11.9860 C.3   257  LEU257      0.0001
    136  N         15.9100   26.4990    5.4830 N.3   260  VAL260     -0.1231
    137  CA        16.0210   25.2030    6.1490 C.3   260  VAL260      0.1692
    138  C         15.1790   25.1660    7.4250 C.2   260  VAL260      0.2591
    139  O         14.4210   24.2170    7.6410 O.2   260  VAL260     -0.2718
    140  CB        17.4970   24.8360    6.4330 C.3   260  VAL260      0.0266
    141  CG1       17.5770   23.6410    7.3850 C.3   260  VAL260      0.0020
    142  CG2       18.1880   24.4730    5.1160 C.3   260  VAL260      0.0020
    143  N         15.2710   26.1950    8.2630 N.am  261  ILE261     -0.1980
    144  CA        14.4540   26.2010    9.4680 C.3   261  ILE261      0.1595
    145  C         12.9640   26.3060    9.1130 C.2   261  ILE261      0.2287
    146  O         12.1310   25.6020    9.6800 O.2   261  ILE261     -0.2864
    147  CB        14.8290   27.3780   10.4060 C.3   261  ILE261      0.0276
    148  CG1       16.2690   27.2200   10.8940 C.3   261  ILE261      0.0022
    149  CG2       13.8560   27.4320   11.5920 C.3   261  ILE261      0.0022
    150  CD1       16.4920   26.0200   11.8030 C.3   261  ILE261      0.0001
    151  N         10.7380   23.3220    8.3570 N.3   264  HIS264     -0.1226
    152  CA        10.2360   22.5610    9.4950 C.3   264  HIS264      0.1752
    153  C          9.2010   23.3010   10.3230 C.2   264  HIS264      0.2596
    154  O          8.2660   22.6930   10.8300 O.2   264  HIS264     -0.2718
    155  CB        11.3980   22.1260   10.3720 C.3   264  HIS264      0.0759
    156  CG        12.2850   21.1370    9.7000 C.ar  264  HIS264      0.0818
    157  ND1       12.0250   19.7780    9.7000 N.ar  264  HIS264     -0.2268
    158  CD2       13.3700   21.3080    8.9090 C.ar  264  HIS264      0.1154
    159  CE1       12.9080   19.1650    8.9390 C.ar  264  HIS264      0.1986
    160  NE2       13.7390   20.0730    8.4440 N.ar  264  HIS264     -0.2212
    161  N          9.3470   24.6120   10.4720 N.am  265  THR265     -0.1953
    162  CA         8.3530   25.3540   11.2550 C.3   265  THR265      0.1897
    163  C          7.0920   25.6480   10.4440 C.2   265  THR265      0.2313
    164  O          5.9740   25.6090   10.9700 O.2   265  THR265     -0.2863
    165  CB         8.9220   26.6810   11.7880 C.3   265  THR265      0.1794
    166  OG1        9.2910   27.5170   10.6870 O.3   265  THR265     -0.2208
    167  CG2       10.1520   26.4350   12.6690 C.3   265  THR265      0.0378
    168  N          5.4000   31.6570   10.9410 N.3   269  THR269     -0.1218
    169  CA         6.1810   31.4280   12.1520 C.3   269  THR269      0.1862
    170  C          6.7180   32.7670   12.6470 C.2   269  THR269      0.2287
    171  O          7.1130   33.6210   11.8540 O.2   269  THR269     -0.2866
    172  CB         7.3780   30.4770   11.8770 C.3   269  THR269      0.1770
    173  OG1        6.8850   29.2250   11.3810 O.3   269  THR269     -0.2211
    174  CG2        8.1790   30.2110   13.1570 C.3   269  THR269      0.0375
    175  N          8.5340   34.7040   16.5190 N.3   271  GLY271     -0.1210
    176  CA         8.9040   34.5270   17.9130 C.3   271  GLY271      0.1956
    177  C         10.2510   35.2300   18.0940 C.2   271  GLY271      0.2612
    178  O         10.6760   36.0350   17.2760 O.2   271  GLY271     -0.2717
    179  N         10.8990   34.8450   19.2080 N.am  272  PHE272     -0.1962
    180  CA        12.1740   35.4720   19.4940 C.3   272  PHE272      0.1771
    181  C         13.0000   34.6660   20.4980 C.2   272  PHE272      0.2619
    182  O         12.4780   33.9120   21.3080 O.2   272  PHE272     -0.2715
    183  CB        12.2360   36.9680   19.8770 C.3   272  PHE272      0.0574
    184  CG        11.6410   37.1670   21.2400 C.ar  272  PHE272     -0.0200
    185  CD1       10.2610   37.2100   21.3870 C.ar  272  PHE272     -0.0042
    186  CD2       12.4680   37.3370   22.3390 C.ar  272  PHE272     -0.0042
    187  CE1        9.7080   37.4260   22.6410 C.ar  272  PHE272     -0.0003
    188  CE2       11.9050   37.5520   23.5940 C.ar  272  PHE272     -0.0003
    189  CZ        10.5260   37.5960   23.7510 C.ar  272  PHE272     -0.0000
    190  N         14.3250   34.8380   20.3480 N.am  273  TYR273     -0.1974
    191  CA        15.2010   34.1680   21.2900 C.3   273  TYR273      0.1639
    192  C         15.7550   35.3510   22.0860 C.2   273  TYR273      0.2290
    193  O         15.7050   36.4980   21.6610 O.2   273  TYR273     -0.2864
    194  CB        16.4120   33.6070   20.4710 C.3   273  TYR273      0.0560
    195  CG        16.3610   32.1210   20.4260 C.ar  273  TYR273     -0.0198
    196  CD1       16.8660   31.3770   21.4880 C.ar  273  TYR273     -0.0009
    197  CD2       15.8250   31.4650   19.3170 C.ar  273  TYR273     -0.0009
    198  CE1       16.8280   29.9910   21.4490 C.ar  273  TYR273      0.0417
    199  CE2       15.7970   30.0790   19.2730 C.ar  273  TYR273      0.0417
    200  CZ        16.2990   29.3430   20.3310 C.ar  273  TYR273      0.1957
    201  OH        16.2550   27.9630   20.3040 O.3   273  TYR273     -0.2866
@<TRIPOS>BOND
     1    21    20    1
     2     4     3    2
     3    20    17    1
     4     3     2    1
     5     9    10    1
     6    10    11    1
     7    10    13    1
     8    16    17    1
     9    16    11   am
    10    17    18    1
    11    11    12    2
    12     1     2    1
    13     2     5    1
    14    19    18    2
    15    25    24    2
    16   142   140    1
    17    18    22   am
    18    15    13    1
    19   136   137    1
    20    13    14    1
    21    24    23    1
    22     5     6    1
    23   137   140    1
    24   137   138    1
    25    22    23    1
    26   140   141    1
    27   131   130    2
    28    23    26    1
    29    29    28    2
    30     6     7    1
    31     6     8    1
    32   138   139    2
    33   138   143   am
    34    28    27    1
    35    28    30   am
    36   130   129    1
    37    27    26    1
    38   143   144    1
    39   151   152    1
    40   160   158   ar
    41   160   159   ar
    42   158   156   ar
    43   159   157   ar
    44   128   129    1
    45   145   144    1
    46   145   146    2
    47   129   132    1
    48   144   147    1
    49   152   153    1
    50   152   155    1
    51   132   133    1
    52   156   157   ar
    53   156   155    1
    54   153   161   am
    55   153   154    2
    56   103   102    1
    57   147   148    1
    58   147   149    1
    59   163   164    2
    60   163   162    1
    61   161   162    1
    62   166   165    1
    63   104   102    1
    64   134   133    1
    65   148   150    1
    66   133   135    1
    67   168   169    1
    68   102   101    2
    69   162   165    1
    70    86    87    1
    71    52    51    1
    72   173   172    1
    73   165   167    1
    74    56    55    2
    75   171   170    2
    76   172   169    1
    77   172   174    1
    78    55    54    1
    79   101   100    1
    80    53    54    1
    81    53    49   am
    82   169   170    1
    83    87    88    1
    84    87    90    1
    85    88    89    2
    86    51    48    1
    87   100    99    1
    88    48    49    1
    89    48    47    1
    90    42    41    2
    91    67    66    1
    92    49    50    2
    93   122   121    1
    94   122   123    2
    95   127   125    1
    96    38    36    1
    97    37    35    1
    98    94    95    1
    99    90    91    1
   100    99    98    1
   101   121   124    1
   102   121   120    1
   103    66    63    1
   104    91    93    1
   105    91    92    1
   106    63    62    1
   107    63    64    1
   108   124   125    1
   109    98    95    1
   110    41    47   am
   111    41    40    1
   112    35    36    1
   113    35    32    1
   114    62    59   am
   115   125   126    1
   116    95    96    1
   117    64    65    2
   118    31    32    1
   119    40    43    1
   120    40    39    1
   121    43    44    1
   122    96    97    2
   123    32    33    1
   124    59    58    1
   125    59    60    2
   126    61    58    1
   127    58    57    1
   128    34    33    2
   129   175   176    1
   130    45    44    1
   131    84    82   ar
   132    84    85   ar
   133    44    46    1
   134    82    80   ar
   135   178   177    2
   136    85    83   ar
   137   176   177    1
   138    80    79    1
   139    80    81   ar
   140    79    76    1
   141   177   179   am
   142   119   117    1
   143    77    76    1
   144    77    78    2
   145    83    81   ar
   146    76    75    1
   147   179   180    1
   148   199   197   ar
   149   199   200   ar
   150   197   195   ar
   151   117   118    1
   152   117   114    1
   153   180   183    1
   154   180   181    1
   155   183   184    1
   156   112   110    1
   157   111   110    1
   158   201   200    1
   159   200   198   ar
   160   190   181   am
   161   190   191    1
   162   195   194    1
   163   195   196   ar
   164   194   191    1
   165   181   182    2
   166   113   114    1
   167   110   109    1
   168   114   115    1
   169    74    72    1
   170   184   185   ar
   171   184   186   ar
   172   191   192    1
   173   185   187   ar
   174   198   196   ar
   175   193   192    2
   176   115   116    2
   177   109   106    1
   178   186   188   ar
   179    72    73    1
   180    72    69    1
   181   187   189   ar
   182   106   105    1
   183   106   107    1
   184    69    70    1
   185    69    68    1
   186    70    71    2
   187   188   189   ar
   188   107   108    2
