@<TRIPOS>MOLECULE
tmp/2dthB00.pdb
 87 84 0 0 0
SMALL
GASTEIGER

@<TRIPOS>ATOM
      1  N         51.9750   37.1230   53.9890 N.3    51  ARG51      -0.1231
      2  CA        53.0110   36.1930   53.5580 C.3    51  ARG51       0.1694
      3  C         52.7070   35.6530   52.1630 C.2    51  ARG51       0.2592
      4  O         51.5560   35.6110   51.7390 O.2    51  ARG51      -0.2718
      5  CB        53.1140   35.0100   54.5180 C.3    51  ARG51       0.0321
      6  CG        53.8210   35.2860   55.8280 C.3    51  ARG51       0.0489
      7  CD        54.7190   34.1040   56.1590 C.3    51  ARG51       0.2205
      8  NE        54.4680   33.5400   57.4810 N.pl3  51  ARG51      -0.0865
      9  CZ        55.1340   32.5060   57.9820 C.cat  51  ARG51       0.5346
     10  NH1       56.0900   31.9200   57.2730 N.pl3  51  ARG51       0.1354
     11  NH2       54.8500   32.0600   59.1960 N.pl3  51  ARG51       0.1354
     12  N         53.7520   35.2260   51.4660 N.am   52  LYS52      -0.1966
     13  CA        53.6280   34.6690   50.1230 C.3    52  LYS52       0.1728
     14  C         52.7300   33.4310   50.0750 C.2    52  LYS52       0.2616
     15  O         52.8160   32.5450   50.9280 O.2    52  LYS52      -0.2715
     16  CB        55.0200   34.3050   49.5960 C.3    52  LYS52       0.0311
     17  CG        55.0410   33.4760   48.3210 C.3    52  LYS52       0.0038
     18  CD        54.7640   34.3160   47.0870 C.3    52  LYS52       0.0206
     19  CE        55.0870   33.5370   45.8180 C.3    52  LYS52       0.1093
     20  NZ        54.9330   34.3640   44.5860 N.3    52  LYS52      -0.1314
     21  N         51.8590   33.3780   49.0750 N.am   53  TRP53      -0.1960
     22  CA        50.9890   32.2260   48.9000 C.3    53  TRP53       0.1771
     23  C         51.2740   31.6110   47.5340 C.2    53  TRP53       0.2619
     24  O         50.9120   32.1800   46.5020 O.2    53  TRP53      -0.2715
     25  CB        49.5180   32.6300   48.9960 C.3    53  TRP53       0.0590
     26  CG        48.5990   31.4810   48.7490 C.ar   53  TRP53       0.0006
     27  CD1       47.9860   31.1570   47.5730 C.ar   53  TRP53       0.0946
     28  CD2       48.2180   30.4750   49.6910 C.ar   53  TRP53       0.0152
     29  NE1       47.2470   30.0150   47.7230 N.ar   53  TRP53      -0.2442
     30  CE2       47.3720   29.5700   49.0140 C.ar   53  TRP53       0.0810
     31  CE3       48.5120   30.2460   51.0420 C.ar   53  TRP53       0.0012
     32  CZ2       46.8110   28.4540   49.6420 C.ar   53  TRP53       0.0191
     33  CZ3       47.9540   29.1340   51.6700 C.ar   53  TRP53       0.0001
     34  CH2       47.1130   28.2510   50.9660 C.ar   53  TRP53       0.0015
     35  N         51.9390   30.4600   47.5350 N.am   54  GLU54      -0.1977
     36  CA        52.2890   29.7670   46.2940 C.3    54  GLU54       0.1602
     37  C         51.0230   29.4910   45.4990 C.2    54  GLU54       0.2287
     38  O         50.1100   28.8330   45.9980 O.2    54  GLU54      -0.2864
     39  CB        52.9970   28.4390   46.5960 C.3    54  GLU54       0.0415
     40  CG        54.3100   28.5670   47.3520 C.3    54  GLU54       0.1163
     41  CD        55.2680   29.5560   46.7140 C.2    54  GLU54       0.3649
     42  OE1       55.4350   29.5250   45.4730 O.co2  54  GLU54      -0.2457
     43  OE2       55.8620   30.3610   47.4610 O.co2  54  GLU54      -0.2457
     44  N         48.1600   22.1250   56.0470 N.3   111  LYS111     -0.1245
     45  CA        47.3650   23.1790   55.4180 C.3   111  LYS111      0.1561
     46  C         47.0090   22.8700   53.9650 C.2   111  LYS111      0.2260
     47  O         47.8860   22.6910   53.1120 O.2   111  LYS111     -0.2867
     48  CB        48.1040   24.5210   55.5040 C.3   111  LYS111      0.0271
     49  CG        47.2750   25.7320   55.0680 C.3   111  LYS111      0.0035
     50  CD        48.0040   27.0320   55.3930 C.3   111  LYS111      0.0206
     51  CE        47.1500   28.2620   55.1270 C.3   111  LYS111      0.1093
     52  NZ        47.8500   29.5090   55.5670 N.3   111  LYS111     -0.1314
     53  N         44.4220   24.0490   47.6120 N.3   131  ASN131     -0.1240
     54  CA        45.3070   23.1500   46.8830 C.3   131  ASN131      0.1653
     55  C         44.5290   21.9550   46.3620 C.2   131  ASN131      0.2266
     56  O         43.9510   21.1900   47.1370 O.2   131  ASN131     -0.2867
     57  CB        46.4500   22.6810   47.7930 C.3   131  ASN131      0.1155
     58  CG        47.3050   23.8280   48.2920 C.2   131  ASN131      0.2627
     59  OD1       47.7710   24.6600   47.5060 O.2   131  ASN131     -0.2716
     60  ND2       47.5230   23.8790   49.6050 N.am  131  ASN131     -0.0877
     61  N         47.8040   21.0020   42.3860 N.3   134  ASN134     -0.1240
     62  CA        49.0890   21.6920   42.3770 C.3   134  ASN134      0.1653
     63  C         50.0830   21.1640   43.4020 C.2   134  ASN134      0.2266
     64  O         49.7120   20.5400   44.3950 O.2   134  ASN134     -0.2867
     65  CB        48.8780   23.1730   42.6650 C.3   134  ASN134      0.1155
     66  CG        48.1550   23.3940   43.9710 C.2   134  ASN134      0.2627
     67  OD1       46.9780   23.0770   44.0800 O.2   134  ASN134     -0.2716
     68  ND2       48.8590   23.9180   44.9780 N.am  134  ASN134     -0.0877
     69  N         52.6420   21.5840   46.4220 N.3   136  VAL136     -0.1231
     70  CA        52.5590   22.4600   47.5850 C.3   136  VAL136      0.1678
     71  C         53.8630   22.4540   48.3640 C.2   136  VAL136      0.2434
     72  O         54.6650   21.5340   48.2310 O.2   136  VAL136     -0.2733
     73  CB        51.4160   22.0390   48.5310 C.3   136  VAL136      0.0265
     74  CG1       50.0890   22.1440   47.8070 C.3   136  VAL136      0.0020
     75  CG2       51.6480   20.6190   49.0420 C.3   136  VAL136      0.0020
     76  N         54.0970   23.4950   49.1790 N.am  137  PRO137     -0.2729
     77  CA        55.3230   23.5820   49.9780 C.3   137  PRO137      0.1401
     78  C         55.3720   22.3890   50.9250 C.2   137  PRO137      0.2269
     79  O         54.3520   21.7400   51.1550 O.2   137  PRO137     -0.2865
     80  CB        55.1500   24.8980   50.7320 C.3   137  PRO137      0.0296
     81  CG        54.2610   25.7030   49.8280 C.3   137  PRO137      0.0237
     82  CD        53.2520   24.6820   49.3910 C.3   137  PRO137      0.0939
     83  N         52.5260   21.3340   53.7230 N.3   140  ALA140     -0.1245
     84  CA        51.1640   21.5040   53.2220 C.3   140  ALA140      0.1562
     85  C         50.6690   20.2270   52.5500 C.2   140  ALA140      0.2260
     86  O         51.3690   19.2160   52.5200 O.2   140  ALA140     -0.2867
     87  CB        51.1160   22.6570   52.2330 C.3   140  ALA140      0.0290
@<TRIPOS>BOND
     1    62    61    1
     2    62    65    1
     3    62    63    1
     4    65    66    1
     5    63    64    2
     6    66    67    2
     7    66    68   am
     8    20    19    1
     9    42    41   ar
    10    37    38    2
    11    37    36    1
    12    19    18    1
    13    36    39    1
    14    36    35    1
    15    55    54    1
    16    55    56    2
    17    69    70    1
    18    24    23    2
    19    39    40    1
    20    41    40    1
    21    41    43   ar
    22    54    53    1
    23    54    57    1
    24    18    17    1
    25    59    58    2
    26    23    35   am
    27    23    22    1
    28    27    29   ar
    29    27    26   ar
    30    70    71    1
    31    70    73    1
    32    29    30   ar
    33    57    58    1
    34    74    73    1
    35    72    71    2
    36    58    60   am
    37    17    16    1
    38    71    76   am
    39    73    75    1
    40    26    25    1
    41    26    28   ar
    42    22    25    1
    43    22    21    1
    44    30    32   ar
    45    30    28   ar
    46    21    14   am
    47    76    82    1
    48    76    77    1
    49    82    81    1
    50    16    13    1
    51    32    34   ar
    52    28    31   ar
    53    81    80    1
    54    77    80    1
    55    77    78    1
    56    14    13    1
    57    14    15    2
    58    13    12    1
    59    78    79    2
    60    34    33   ar
    61    31    33   ar
    62    12     3   am
    63     4     3    2
    64     3     2    1
    65    87    84    1
    66    86    85    2
    67    85    84    1
    68    47    46    2
    69    84    83    1
    70     2     1    1
    71     2     5    1
    72    46    45    1
    73     5     6    1
    74    49    50    1
    75    49    48    1
    76    51    50    1
    77    51    52    1
    78    45    48    1
    79    45    44    1
    80     6     7    1
    81     7     8    1
    82    10     9    1
    83     8     9    2
    84     9    11    1
