@<TRIPOS>MOLECULE
tmp/2dtiA01.pdb
 88 83 0 0 0
SMALL
GASTEIGER

@<TRIPOS>ATOM
      1  N        -22.6040  -12.8750   -6.1680 N.3    48  ARG48      -0.1245
      2  CA       -23.1690  -14.1380   -6.6130 C.3    48  ARG48       0.1563
      3  C        -23.9180  -14.7840   -5.4550 C.2    48  ARG48       0.2260
      4  O        -23.7480  -14.3970   -4.2980 O.2    48  ARG48      -0.2867
      5  CB       -22.0620  -15.0950   -7.0520 C.3    48  ARG48       0.0307
      6  CG       -21.1610  -14.5970   -8.1570 C.3    48  ARG48       0.0489
      7  CD       -20.0440  -15.5930   -8.3610 C.3    48  ARG48       0.2205
      8  NE       -20.5690  -16.9520   -8.4450 N.pl3  48  ARG48      -0.0865
      9  CZ       -19.8840  -18.0430   -8.1190 C.cat  48  ARG48       0.5346
     10  NH1      -18.6350  -17.9520   -7.6780 N.pl3  48  ARG48       0.1354
     11  NH2      -20.4530  -19.2300   -8.2380 N.pl3  48  ARG48       0.1354
     12  N        -25.1460  -13.2020   -2.3070 N.3    51  ARG51      -0.1245
     13  CA       -24.1450  -12.5320   -1.4850 C.3    51  ARG51       0.1563
     14  C        -24.3130  -11.0360   -1.6870 C.2    51  ARG51       0.2260
     15  O        -24.7580  -10.5880   -2.7450 O.2    51  ARG51      -0.2867
     16  CB       -22.7320  -12.9420   -1.9020 C.3    51  ARG51       0.0307
     17  CG       -22.4050  -14.4110   -1.6930 C.3    51  ARG51       0.0489
     18  CD       -21.1030  -14.7490   -2.3910 C.3    51  ARG51       0.2205
     19  NE       -20.7640  -16.1650   -2.3080 N.pl3  51  ARG51      -0.0865
     20  CZ       -19.8510  -16.7560   -3.0730 C.cat  51  ARG51       0.5346
     21  NH1      -19.1850  -16.0550   -3.9770 N.pl3  51  ARG51       0.1354
     22  NH2      -19.6100  -18.0490   -2.9400 N.pl3  51  ARG51       0.1354
     23  N         -9.0020  -14.2340  -10.9180 N.3   100  LYS100     -0.1245
     24  CA        -9.2100  -15.4110  -10.0900 C.3   100  LYS100      0.1561
     25  C        -10.4960  -16.0610  -10.5900 C.2   100  LYS100      0.2260
     26  O        -11.5550  -15.4580  -10.4990 O.2   100  LYS100     -0.2867
     27  CB        -9.3880  -15.0210   -8.6180 C.3   100  LYS100      0.0271
     28  CG        -9.9910  -16.1380   -7.7710 C.3   100  LYS100      0.0035
     29  CD       -10.4000  -15.6600   -6.3780 C.3   100  LYS100      0.0206
     30  CE       -11.2040  -16.7280   -5.6360 C.3   100  LYS100      0.1093
     31  NZ       -12.5420  -17.0080   -6.2650 N.3   100  LYS100     -0.1314
     32  N        -13.8630  -17.7530  -10.6160 N.3   102  PRO102     -0.2102
     33  CA       -14.4690  -17.4970  -11.9220 C.3   102  PRO102      0.1504
     34  C        -14.7820  -16.0520  -12.2980 C.2   102  PRO102      0.2576
     35  O        -14.8730  -15.7350  -13.4810 O.2   102  PRO102     -0.2718
     36  CB       -15.7380  -18.3250  -11.8490 C.3   102  PRO102      0.0282
     37  CG       -16.1930  -18.0300  -10.4450 C.3   102  PRO102      0.0208
     38  CD       -14.9030  -18.0700   -9.6190 C.3   102  PRO102      0.0893
     39  N        -14.9400  -15.1750  -11.3110 N.am  103  ASN103     -0.1961
     40  CA       -15.3210  -13.7890  -11.6030 C.3   103  ASN103      0.1819
     41  C        -14.5940  -12.7440  -10.7710 C.2   103  ASN103      0.2621
     42  O        -15.1450  -11.6810  -10.4950 O.2   103  ASN103     -0.2715
     43  CB       -16.8110  -13.6390  -11.3340 C.3   103  ASN103      0.1195
     44  CG       -17.1350  -13.7980   -9.8490 C.2   103  ASN103      0.2630
     45  OD1      -16.6550  -14.7230   -9.2140 O.2   103  ASN103     -0.2716
     46  ND2      -17.9420  -12.8930   -9.3010 N.am  103  ASN103     -0.0877
     47  N        -13.3600  -13.0050  -10.3780 N.am  104  ASP104     -0.1971
     48  CA       -12.7030  -12.0330   -9.5390 C.3   104  ASP104      0.1709
     49  C        -11.3650  -11.5050  -10.0370 C.2   104  ASP104      0.2293
     50  O        -10.6410  -12.1720  -10.7910 O.2   104  ASP104     -0.2864
     51  CB       -12.5380  -12.6270   -8.1370 C.3   104  ASP104      0.1436
     52  CG       -13.8380  -13.2180   -7.5900 C.2   104  ASP104      0.3671
     53  OD1      -14.8000  -12.4580   -7.3550 O.co2 104  ASP104     -0.2456
     54  OD2      -13.9030  -14.4510   -7.3950 O.co2 104  ASP104     -0.2456
     55  N         -8.9920   -9.0190   -3.1430 N.3   111  LYS111     -0.1245
     56  CA        -9.9920   -8.6410   -4.1340 C.3   111  LYS111      0.1561
     57  C        -10.1640   -7.1360   -4.2960 C.2   111  LYS111      0.2260
     58  O        -10.3830   -6.4050   -3.3250 O.2   111  LYS111     -0.2867
     59  CB       -11.3390   -9.2880   -3.7980 C.3   111  LYS111      0.0271
     60  CG       -12.4370   -8.9660   -4.8030 C.3   111  LYS111      0.0035
     61  CD       -13.5820   -9.9240   -4.6790 C.3   111  LYS111      0.0206
     62  CE       -13.0940  -11.3190   -4.9370 C.3   111  LYS111      0.1093
     63  NZ       -14.1950  -12.2600   -4.7580 N.3   111  LYS111     -0.1314
     64  N        -17.7060  -22.2980   -5.6110 N.3   231  SER231     -0.1202
     65  CA       -16.8010  -21.2960   -5.0580 C.3   231  SER231      0.2020
     66  C        -15.3610  -21.7940   -5.0470 C.2   231  SER231      0.2619
     67  O        -15.0930  -22.9570   -4.7530 O.2   231  SER231     -0.2717
     68  CB       -17.2350  -20.9310   -3.6390 C.3   231  SER231      0.2103
     69  OG       -16.3420  -19.9990   -3.0550 O.3   231  SER231     -0.2182
     70  N        -14.4330  -20.9050   -5.3750 N.am  232  LEU232     -0.1965
     71  CA       -13.0290  -21.2600   -5.4080 C.3   232  LEU232      0.1728
     72  C        -12.2500  -20.5640   -4.2940 C.2   232  LEU232      0.2616
     73  O        -12.5000  -19.4040   -3.9850 O.2   232  LEU232     -0.2715
     74  CB       -12.4440  -20.9030   -6.7740 C.3   232  LEU232      0.0311
     75  CG       -10.9740  -21.2650   -6.9800 C.3   232  LEU232      0.0022
     76  CD1      -10.7180  -21.6480   -8.4220 C.3   232  LEU232      0.0001
     77  CD2      -10.0950  -20.0880   -6.5670 C.3   232  LEU232      0.0001
     78  N        -11.3120  -21.2920   -3.6970 N.am  233  ARG233     -0.1977
     79  CA       -10.4720  -20.7760   -2.6180 C.3   233  ARG233      0.1597
     80  C         -9.0160  -21.2020   -2.8090 C.2   233  ARG233      0.2287
     81  O         -8.7280  -22.3340   -3.1950 O.2   233  ARG233     -0.2864
     82  CB       -10.9840  -21.2710   -1.2630 C.3   233  ARG233      0.0334
     83  CG       -12.2910  -20.6620   -0.7960 C.3   233  ARG233      0.0492
     84  CD       -12.6930  -21.2750    0.5400 C.3   233  ARG233      0.2205
     85  NE       -13.8570  -20.6490    1.1720 N.pl3 233  ARG233     -0.0865
     86  CZ       -14.9800  -20.3180    0.5400 C.cat 233  ARG233      0.5346
     87  NH1      -15.1120  -20.5370   -0.7640 N.pl3 233  ARG233      0.1354
     88  NH2      -15.9890  -19.7930    1.2210 N.pl3 233  ARG233      0.1354
@<TRIPOS>BOND
     1    35    34    2
     2    34    33    1
     3    34    39   am
     4    33    36    1
     5    33    32    1
     6    36    37    1
     7    40    43    1
     8    40    39    1
     9    40    41    1
    10    43    44    1
    11    23    24    1
    12    50    49    2
    13    41    42    2
    14    41    47   am
    15    32    38    1
    16    25    26    2
    17    25    24    1
    18    37    38    1
    19    47    48    1
    20    24    27    1
    21    49    48    1
    22    44    46   am
    23    44    45    2
    24    48    51    1
    25    27    28    1
    26     8     7    1
    27     8     9    2
    28    76    75    1
    29     7     6    1
    30    11     9    1
    31     6     5    1
    32    51    52    1
    33     9    10    1
    34    28    29    1
    35    52    54   ar
    36    52    53   ar
    37     5     2    1
    38    75    74    1
    39    75    77    1
    40    74    71    1
    41     2     1    1
    42     2     3    1
    43    29    30    1
    44    31    30    1
    45    64    65    1
    46     3     4    2
    47    71    70    1
    48    71    72    1
    49    70    66   am
    50    65    66    1
    51    65    68    1
    52    66    67    2
    53    62    63    1
    54    62    61    1
    55    60    61    1
    56    60    59    1
    57    57    56    1
    58    57    58    2
    59    72    73    2
    60    72    78   am
    61    56    59    1
    62    56    55    1
    63    21    20    1
    64    78    79    1
    65    68    69    1
    66    81    80    2
    67    20    22    1
    68    20    19    2
    69    80    79    1
    70    15    14    2
    71    79    82    1
    72    18    19    1
    73    18    17    1
    74    12    13    1
    75    16    17    1
    76    16    13    1
    77    14    13    1
    78    82    83    1
    79    83    84    1
    80    87    86    1
    81    84    85    1
    82    86    85    2
    83    86    88    1
